
     RDKit          3D

 26 28  0  0  0  0  0  0  0  0999 V2000
  -20.7109   12.2849   29.0325 O   0  0  0  0  0  0  0  0  0  0  0  0
  -21.4644   12.2776   28.0643 C   0  0  0  0  0  0  0  0  0  0  0  0
  -20.9284   11.9743   26.8380 N   0  0  0  0  0  0  0  0  0  0  0  0
  -21.5676   11.8541   26.0471 H   0  0  0  0  0  0  0  0  0  0  0  0
  -19.5303   11.7866   26.6115 C   0  0  0  0  0  0  0  0  0  0  0  0
  -19.2499   10.7373   26.5462 H   0  0  0  0  0  0  0  0  0  0  0  0
  -18.5168   12.7127   27.2272 C   0  0  0  0  0  0  0  0  0  0  0  0
  -18.8655   13.5542   27.8137 H   0  0  0  0  0  0  0  0  0  0  0  0
  -17.5874   12.2806   27.5788 H   0  0  0  0  0  0  0  0  0  0  0  0
  -18.7593   12.7462   25.7472 C   0  0  0  0  0  0  0  0  0  0  0  0
  -18.0018   12.3313   25.0936 H   0  0  0  0  0  0  0  0  0  0  0  0
  -19.2839   13.5992   25.3341 H   0  0  0  0  0  0  0  0  0  0  0  0
  -22.9184   12.5257   28.1769 C   0  0  0  0  0  0  0  0  0  0  0  0
  -23.5156   12.4093   29.4466 C   0  0  0  0  0  0  0  0  0  0  0  0
  -22.9386   12.1470   30.2950 H   0  0  0  0  0  0  0  0  0  0  0  0
  -24.8751   12.6429   29.5690 C   0  0  0  0  0  0  0  0  0  0  0  0
  -25.5988   12.5678   30.7161 O   0  0  0  0  0  0  0  0  0  0  0  0
  -26.9152   12.9042   30.2305 C   0  0  0  0  0  0  0  0  0  0  0  0
  -27.5914   12.0693   30.4434 H   0  0  0  0  0  0  0  0  0  0  0  0
  -27.2711   13.7912   30.7672 H   0  0  0  0  0  0  0  0  0  0  0  0
  -26.9504   13.1770   28.8138 O   0  0  0  0  0  0  0  0  0  0  0  0
  -25.6443   12.9903   28.4861 C   0  0  0  0  0  0  0  0  0  0  0  0
  -25.0911   13.1257   27.2208 C   0  0  0  0  0  0  0  0  0  0  0  0
  -25.6994   13.4025   26.3978 H   0  0  0  0  0  0  0  0  0  0  0  0
  -23.7229   12.8957   27.0705 C   0  0  0  0  0  0  0  0  0  0  0  0
  -23.2844   13.0141   26.1127 H   0  0  0  0  0  0  0  0  0  0  0  0
  1  2  2  0
  2  3  1  0
  2 13  1  0
  3  4  1  0
  3  5  1  0
  5  6  1  0
  5  7  1  0
  5 10  1  0
  7  8  1  0
  7  9  1  0
  7 10  1  0
 10 11  1  0
 10 12  1  0
 13 14  1  0
 13 25  2  0
 14 15  1  0
 14 16  2  0
 16 17  1  0
 16 22  1  0
 17 18  1  0
 18 19  1  0
 18 20  1  0
 18 21  1  0
 21 22  1  0
 22 23  2  0
 23 24  1  0
 23 25  1  0
 25 26  1  0
M  END
$$$$
