
     RDKit          3D

 30 31  0  0  0  0  0  0  0  0999 V2000
  -26.6028   16.8462   27.5192 F   0  0  0  0  0  0  0  0  0  0  0  0
  -25.9026   16.0275   28.3174 C   0  0  0  0  0  0  0  0  0  0  0  0
  -24.9531   16.5738   29.1727 C   0  0  0  0  0  0  0  0  0  0  0  0
  -24.7876   17.6194   29.1865 H   0  0  0  0  0  0  0  0  0  0  0  0
  -24.2261   15.7237   29.9998 C   0  0  0  0  0  0  0  0  0  0  0  0
  -23.4840   16.1118   30.6459 H   0  0  0  0  0  0  0  0  0  0  0  0
  -24.4618   14.3424   29.9636 C   0  0  0  0  0  0  0  0  0  0  0  0
  -23.7353   13.4927   30.7878 N   0  0  0  0  0  0  0  0  0  0  0  0
  -23.5668   13.7533   32.2239 C   0  0  0  0  0  0  0  0  0  0  0  0
  -22.5146   13.9918   32.4209 H   0  0  0  0  0  0  0  0  0  0  0  0
  -24.1706   14.5991   32.5710 H   0  0  0  0  0  0  0  0  0  0  0  0
  -23.9873   12.5123   33.0268 C   0  0  0  0  0  0  0  0  0  0  0  0
  -25.0660   12.3467   32.9179 H   0  0  0  0  0  0  0  0  0  0  0  0
  -23.7919   12.6789   34.0912 H   0  0  0  0  0  0  0  0  0  0  0  0
  -23.3271   11.2924   32.5441 N   0  0  0  0  0  0  0  0  0  0  0  0
  -22.6312   10.5205   33.4340 C   0  0  0  0  0  0  0  0  0  0  0  0
  -22.3701   10.8638   34.5746 O   0  0  0  0  0  0  0  0  0  0  0  0
  -22.2423    9.3197   32.9984 N   0  0  0  0  0  0  0  0  0  0  0  0
  -21.2263    9.1804   32.9909 H   0  0  0  0  0  0  0  0  0  0  0  0
  -22.8444    8.5331   33.2512 H   0  0  0  0  0  0  0  0  0  0  0  0
  -23.4866   11.0550   31.0982 C   0  0  0  0  0  0  0  0  0  0  0  0
  -22.8968   10.2008   30.7594 H   0  0  0  0  0  0  0  0  0  0  0  0
  -24.5451   10.8287   30.9270 H   0  0  0  0  0  0  0  0  0  0  0  0
  -23.0637   12.2881   30.2824 C   0  0  0  0  0  0  0  0  0  0  0  0
  -23.2450   12.1072   29.2175 H   0  0  0  0  0  0  0  0  0  0  0  0
  -21.9812   12.4352   30.3880 H   0  0  0  0  0  0  0  0  0  0  0  0
  -25.4231   13.8100   29.0886 C   0  0  0  0  0  0  0  0  0  0  0  0
  -25.6112   12.7707   29.0608 H   0  0  0  0  0  0  0  0  0  0  0  0
  -26.1492   14.6610   28.2611 C   0  0  0  0  0  0  0  0  0  0  0  0
  -26.8814   14.2819   27.5972 H   0  0  0  0  0  0  0  0  0  0  0  0
  1  2  1  0
  2  3  1  0
  2 29  2  0
  3  4  1  0
  3  5  2  0
  5  6  1  0
  5  7  1  0
  7  8  1  0
  7 27  2  0
  8  9  1  0
  8 24  1  0
  9 10  1  0
  9 11  1  0
  9 12  1  0
 12 13  1  0
 12 14  1  0
 12 15  1  0
 15 16  1  0
 15 21  1  0
 16 17  2  0
 16 18  1  0
 18 19  1  0
 18 20  1  0
 21 22  1  0
 21 23  1  0
 21 24  1  0
 24 25  1  0
 24 26  1  0
 27 28  1  0
 27 29  1  0
 29 30  1  0
M  END
$$$$
