
     RDKit          3D

 25 27  0  0  0  0  0  0  0  0999 V2000
  -22.7047   12.9047   26.4897 O   0  0  0  0  0  0  0  0  0  0  0  0
  -22.4663   12.5343   27.6377 C   0  0  0  0  0  0  0  0  0  0  0  0
  -21.1859   12.1984   27.9613 N   0  0  0  0  0  0  0  0  0  0  0  0
  -21.0384   11.9079   28.9418 H   0  0  0  0  0  0  0  0  0  0  0  0
  -20.0836   12.2330   27.0592 C   0  0  0  0  0  0  0  0  0  0  0  0
  -20.2622   11.6643   26.1496 H   0  0  0  0  0  0  0  0  0  0  0  0
  -18.6700   12.2429   27.5748 C   0  0  0  0  0  0  0  0  0  0  0  0
  -18.5047   12.2667   28.6451 H   0  0  0  0  0  0  0  0  0  0  0  0
  -17.9283   11.6786   27.0218 H   0  0  0  0  0  0  0  0  0  0  0  0
  -19.2404   13.4710   26.9290 C   0  0  0  0  0  0  0  0  0  0  0  0
  -18.8913   13.7387   25.9391 H   0  0  0  0  0  0  0  0  0  0  0  0
  -19.4723   14.3185   27.5639 H   0  0  0  0  0  0  0  0  0  0  0  0
  -23.4561   12.4355   28.6850 C   0  0  0  0  0  0  0  0  0  0  0  0
  -23.2398   11.9885   29.9644 C   0  0  0  0  0  0  0  0  0  0  0  0
  -24.4691   12.0819   30.5731 N   0  0  0  0  0  0  0  0  0  0  0  0
  -25.4351   12.5640   29.7470 N   0  0  0  0  0  0  0  0  0  0  0  0
  -24.8075   12.7710   28.6144 C   0  0  0  0  0  0  0  0  0  0  0  0
  -25.2871   13.1529   27.7475 H   0  0  0  0  0  0  0  0  0  0  0  0
  -24.6511   11.7074   31.9102 C   0  0  0  0  0  0  0  0  0  0  0  0
  -25.6335   11.8140   32.2908 H   0  0  0  0  0  0  0  0  0  0  0  0
  -23.5409   11.2475   32.5649 C   0  0  0  0  0  0  0  0  0  0  0  0
  -23.5973   10.9435   33.5773 H   0  0  0  0  0  0  0  0  0  0  0  0
  -22.2755   11.1652   31.8953 C   0  0  0  0  0  0  0  0  0  0  0  0
  -21.4298   10.8054   32.4232 H   0  0  0  0  0  0  0  0  0  0  0  0
  -22.1118   11.5164   30.6489 N   0  0  0  0  0  0  0  0  0  0  0  0
  1  2  2  0
  2  3  1  0
  2 13  1  0
  3  4  1  0
  3  5  1  0
  5  6  1  0
  5  7  1  0
  5 10  1  0
  7  8  1  0
  7  9  1  0
  7 10  1  0
 10 11  1  0
 10 12  1  0
 13 14  2  0
 13 17  1  0
 14 15  1  0
 14 25  1  0
 15 16  1  0
 15 19  1  0
 16 17  2  0
 17 18  1  0
 19 20  1  0
 19 21  2  0
 21 22  1  0
 21 23  1  0
 23 24  1  0
 23 25  2  0
M  END
$$$$
