
     RDKit          3D

 29 30  0  0  0  0  0  0  0  0999 V2000
  -14.4403   18.5034   24.0820 O   0  0  0  0  0  0  0  0  0  0  0  0
  -14.8374   17.9592   25.0992 C   0  0  0  0  0  0  0  0  0  0  0  0
  -14.5080   16.6883   25.3392 N   0  0  0  0  0  0  0  0  0  0  0  0
  -13.6774   16.5688   25.9294 H   0  0  0  0  0  0  0  0  0  0  0  0
  -15.2847   16.0313   25.4462 H   0  0  0  0  0  0  0  0  0  0  0  0
  -15.6077   18.5799   26.0472 N   0  0  0  0  0  0  0  0  0  0  0  0
  -15.8072   20.0294   25.9627 C   0  0  0  0  0  0  0  0  0  0  0  0
  -15.3146   20.4515   25.0805 H   0  0  0  0  0  0  0  0  0  0  0  0
  -15.3301   20.4693   26.8469 H   0  0  0  0  0  0  0  0  0  0  0  0
  -17.2955   20.3772   25.9420 C   0  0  0  0  0  0  0  0  0  0  0  0
  -17.7608   19.9738   25.0346 H   0  0  0  0  0  0  0  0  0  0  0  0
  -17.4231   21.4630   25.9153 H   0  0  0  0  0  0  0  0  0  0  0  0
  -18.0051   19.7711   27.0787 N   0  0  0  0  0  0  0  0  0  0  0  0
  -18.8048   20.5553   27.9043 C   0  0  0  0  0  0  0  0  0  0  0  0
  -18.6469   21.7738   27.8223 O   0  0  0  0  0  0  0  0  0  0  0  0
  -19.7629   19.9636   28.8115 C   0  0  0  0  0  0  0  0  0  0  0  0
  -20.7547   19.1459   28.3461 O   0  0  0  0  0  0  0  0  0  0  0  0
  -21.5285   18.7871   29.3943 C   0  0  0  0  0  0  0  0  0  0  0  0
  -22.3553   18.1393   29.2519 H   0  0  0  0  0  0  0  0  0  0  0  0
  -21.0648   19.3725   30.5225 C   0  0  0  0  0  0  0  0  0  0  0  0
  -21.4767   19.2716   31.4928 H   0  0  0  0  0  0  0  0  0  0  0  0
  -19.9376   20.1441   30.1521 C   0  0  0  0  0  0  0  0  0  0  0  0
  -19.3314   20.7512   30.7751 H   0  0  0  0  0  0  0  0  0  0  0  0
  -17.7922   18.3247   27.2266 C   0  0  0  0  0  0  0  0  0  0  0  0
  -18.1924   17.9525   28.1713 H   0  0  0  0  0  0  0  0  0  0  0  0
  -18.3304   17.8393   26.4044 H   0  0  0  0  0  0  0  0  0  0  0  0
  -16.3001   17.9464   27.1783 C   0  0  0  0  0  0  0  0  0  0  0  0
  -16.2225   16.8574   27.1476 H   0  0  0  0  0  0  0  0  0  0  0  0
  -15.7973   18.2953   28.0884 H   0  0  0  0  0  0  0  0  0  0  0  0
  1  2  2  0
  2  3  1  0
  2  6  1  0
  3  4  1  0
  3  5  1  0
  6  7  1  0
  6 27  1  0
  7  8  1  0
  7  9  1  0
  7 10  1  0
 10 11  1  0
 10 12  1  0
 10 13  1  0
 13 14  1  0
 13 24  1  0
 14 15  2  0
 14 16  1  0
 16 17  1  0
 16 22  2  0
 17 18  1  0
 18 19  1  0
 18 20  2  0
 20 21  1  0
 20 22  1  0
 22 23  1  0
 24 25  1  0
 24 26  1  0
 24 27  1  0
 27 28  1  0
 27 29  1  0
M  END
$$$$
