
     RDKit          3D

 19 19  0  0  0  0  0  0  0  0999 V2000
  -22.9441   12.7611   33.6469 Br  0  0  0  0  0  0  0  0  0  0  0  0
  -23.1607   12.8558   31.7917 C   0  0  0  0  0  0  0  0  0  0  0  0
  -23.8347   13.8897   31.2169 C   0  0  0  0  0  0  0  0  0  0  0  0
  -24.2553   14.6659   31.7978 H   0  0  0  0  0  0  0  0  0  0  0  0
  -24.0000   13.9577   29.8004 C   0  0  0  0  0  0  0  0  0  0  0  0
  -24.6178   14.8582   29.2177 O   0  0  0  0  0  0  0  0  0  0  0  0
  -23.4357   12.9372   29.0285 N   0  0  0  0  0  0  0  0  0  0  0  0
  -23.5734   12.9686   27.5714 C   0  0  0  0  0  0  0  0  0  0  0  0
  -23.8405   13.9840   27.2538 H   0  0  0  0  0  0  0  0  0  0  0  0
  -22.6051   12.7584   27.0988 H   0  0  0  0  0  0  0  0  0  0  0  0
  -24.6322   11.9882   27.0700 C   0  0  0  0  0  0  0  0  0  0  0  0
  -25.6039   12.1643   27.5430 H   0  0  0  0  0  0  0  0  0  0  0  0
  -24.3367   10.9580   27.2947 H   0  0  0  0  0  0  0  0  0  0  0  0
  -24.7857   12.1033   25.6602 O   0  0  0  0  0  0  0  0  0  0  0  0
  -25.4266   11.4248   25.3816 H   0  0  0  0  0  0  0  0  0  0  0  0
  -22.7524   11.8789   29.6173 C   0  0  0  0  0  0  0  0  0  0  0  0
  -22.3668   11.1466   28.9507 H   0  0  0  0  0  0  0  0  0  0  0  0
  -22.6106   11.8299   30.9729 C   0  0  0  0  0  0  0  0  0  0  0  0
  -22.0907   11.0278   31.4308 H   0  0  0  0  0  0  0  0  0  0  0  0
  1  2  1  0
  2  3  2  0
  2 18  1  0
  3  4  1  0
  3  5  1  0
  5  6  2  0
  5  7  1  0
  7  8  1  0
  7 16  1  0
  8  9  1  0
  8 10  1  0
  8 11  1  0
 11 12  1  0
 11 13  1  0
 11 14  1  0
 14 15  1  0
 16 17  1  0
 16 18  2  0
 18 19  1  0
M  END
$$$$
