
     RDKit          3D

 21 21  0  0  0  0  0  0  0  0999 V2000
  -23.0959    9.8580   33.0094 Br  0  0  0  0  0  0  0  0  0  0  0  0
  -23.0751   10.7808   31.3575 C   0  0  0  0  0  0  0  0  0  0  0  0
  -23.1588   12.1687   31.3331 C   0  0  0  0  0  0  0  0  0  0  0  0
  -23.2369   12.7205   32.2309 H   0  0  0  0  0  0  0  0  0  0  0  0
  -23.1460   12.8351   30.1114 C   0  0  0  0  0  0  0  0  0  0  0  0
  -23.2522   14.2012   30.1415 O   0  0  0  0  0  0  0  0  0  0  0  0
  -24.5225   14.7521   30.5654 C   0  0  0  0  0  0  0  0  0  0  0  0
  -24.5139   15.8212   30.3597 H   0  0  0  0  0  0  0  0  0  0  0  0
  -24.6379   14.5611   31.6314 H   0  0  0  0  0  0  0  0  0  0  0  0
  -25.3235   14.2670   30.0084 H   0  0  0  0  0  0  0  0  0  0  0  0
  -23.0331   12.1384   28.9003 C   0  0  0  0  0  0  0  0  0  0  0  0
  -22.9758   12.8395   27.5427 C   0  0  0  0  0  0  0  0  0  0  0  0
  -22.3643   12.2557   26.8724 H   0  0  0  0  0  0  0  0  0  0  0  0
  -22.6225   13.8527   27.6384 H   0  0  0  0  0  0  0  0  0  0  0  0
  -24.3688   12.8880   26.9566 C   0  0  0  0  0  0  0  0  0  0  0  0
  -24.5157   12.4728   25.7847 O   0  0  0  0  0  0  0  0  0  0  0  0
  -25.2803   13.3854   27.6547 O   0  0  0  0  0  0  0  0  0  0  0  0
  -22.9578   10.7473   28.9444 C   0  0  0  0  0  0  0  0  0  0  0  0
  -22.8930   10.2010   28.0355 H   0  0  0  0  0  0  0  0  0  0  0  0
  -22.9787   10.0708   30.1617 C   0  0  0  0  0  0  0  0  0  0  0  0
  -22.9247    9.0136   30.1762 H   0  0  0  0  0  0  0  0  0  0  0  0
  1  2  1  0
  2  3  1  0
  2 20  2  0
  3  4  1  0
  3  5  2  0
  5  6  1  0
  5 11  1  0
  6  7  1  0
  7  8  1  0
  7  9  1  0
  7 10  1  0
 11 12  1  0
 11 18  2  0
 12 13  1  0
 12 14  1  0
 12 15  1  0
 15 16  1  0
 15 17  2  0
 18 19  1  0
 18 20  1  0
 20 21  1  0
M  END
$$$$
