
     RDKit          3D

 16 16  0  0  0  0  0  0  0  0999 V2000
  -16.1577   19.1307   25.2545 O   0  0  0  0  0  0  0  0  0  0  0  0
  -16.2336   19.0102   26.6750 C   0  0  0  0  0  0  0  0  0  0  0  0
  -15.2856   19.3329   27.1228 H   0  0  0  0  0  0  0  0  0  0  0  0
  -17.0408   19.6412   27.0639 H   0  0  0  0  0  0  0  0  0  0  0  0
  -16.4824   17.5754   26.9945 C   0  0  0  0  0  0  0  0  0  0  0  0
  -17.8505   16.7569   26.3680 S   0  0  0  0  0  0  0  0  0  0  0  0
  -17.2958   15.3933   27.2203 C   0  0  0  0  0  0  0  0  0  0  0  0
  -17.9780   14.2369   27.1672 N   0  0  0  0  0  0  0  0  0  0  0  0
  -18.8283   14.1350   26.6273 H   0  0  0  0  0  0  0  0  0  0  0  0
  -17.6477   13.4253   27.6753 H   0  0  0  0  0  0  0  0  0  0  0  0
  -16.2053   15.5571   27.9017 N   0  0  0  0  0  0  0  0  0  0  0  0
  -15.7320   16.8454   27.7636 N   0  0  0  0  0  0  0  0  0  0  0  0
  -14.9564   18.5689   24.7454 C   0  0  0  0  0  0  0  0  0  0  0  0
  -14.9532   18.6898   23.6585 H   0  0  0  0  0  0  0  0  0  0  0  0
  -14.9038   17.5011   24.9779 H   0  0  0  0  0  0  0  0  0  0  0  0
  -14.0858   19.0886   25.1569 H   0  0  0  0  0  0  0  0  0  0  0  0
  1  2  1  0
  1 13  1  0
  2  3  1  0
  2  4  1  0
  2  5  1  0
  5  6  1  0
  5 12  2  0
  6  7  1  0
  7  8  1  0
  7 11  2  0
  8  9  1  0
  8 10  1  0
 11 12  1  0
 13 14  1  0
 13 15  1  0
 13 16  1  0
M  END
$$$$
