
     RDKit          3D

 25 26  0  0  0  0  0  0  0  0999 V2000
  -19.4838   17.6286   26.6732 O   0  0  0  0  0  0  0  0  0  0  0  0
  -18.6634   16.7278   26.5110 C   0  0  0  0  0  0  0  0  0  0  0  0
  -17.4049   17.0408   26.0581 N   0  0  0  0  0  0  0  0  0  0  0  0
  -16.7867   16.2242   25.9527 H   0  0  0  0  0  0  0  0  0  0  0  0
  -16.9077   18.2922   25.7412 C   0  0  0  0  0  0  0  0  0  0  0  0
  -15.6440   18.4690   25.3048 C   0  0  0  0  0  0  0  0  0  0  0  0
  -14.8540   17.7887   25.1291 H   0  0  0  0  0  0  0  0  0  0  0  0
  -15.5309   19.8051   25.1027 N   0  0  0  0  0  0  0  0  0  0  0  0
  -14.3807   20.5348   24.6354 C   0  0  0  0  0  0  0  0  0  0  0  0
  -13.5521   19.8422   24.4696 H   0  0  0  0  0  0  0  0  0  0  0  0
  -14.1059   21.2705   25.3954 H   0  0  0  0  0  0  0  0  0  0  0  0
  -14.6447   21.0316   23.6984 H   0  0  0  0  0  0  0  0  0  0  0  0
  -16.6787   20.4718   25.3974 N   0  0  0  0  0  0  0  0  0  0  0  0
  -17.5183   19.5450   25.7866 C   0  0  0  0  0  0  0  0  0  0  0  0
  -18.5140   19.7439   26.0881 H   0  0  0  0  0  0  0  0  0  0  0  0
  -18.9151   15.3234   26.7640 C   0  0  0  0  0  0  0  0  0  0  0  0
  -19.8902   14.9148   27.5370 N   0  0  0  0  0  0  0  0  0  0  0  0
  -19.8450   13.5858   27.5579 O   0  0  0  0  0  0  0  0  0  0  0  0
  -18.8399   13.1384   26.7985 C   0  0  0  0  0  0  0  0  0  0  0  0
  -18.6563   11.6808   26.7181 C   0  0  0  0  0  0  0  0  0  0  0  0
  -17.8047   11.4259   26.0801 H   0  0  0  0  0  0  0  0  0  0  0  0
  -19.5488   11.2047   26.3009 H   0  0  0  0  0  0  0  0  0  0  0  0
  -18.4747   11.2607   27.7117 H   0  0  0  0  0  0  0  0  0  0  0  0
  -18.2264   14.2097   26.2796 C   0  0  0  0  0  0  0  0  0  0  0  0
  -17.3890   14.2145   25.6313 H   0  0  0  0  0  0  0  0  0  0  0  0
  1  2  2  0
  2  3  1  0
  2 16  1  0
  3  4  1  0
  3  5  1  0
  5  6  2  0
  5 14  1  0
  6  7  1  0
  6  8  1  0
  8  9  1  0
  8 13  1  0
  9 10  1  0
  9 11  1  0
  9 12  1  0
 13 14  2  0
 14 15  1  0
 16 17  2  0
 16 24  1  0
 17 18  1  0
 18 19  1  0
 19 20  1  0
 19 24  2  0
 20 21  1  0
 20 22  1  0
 20 23  1  0
 24 25  1  0
M  END
$$$$
