
     RDKit          3D

 29 30  0  0  0  0  0  0  0  0999 V2000
  -27.3143   14.7973   30.4957 O   0  0  0  0  0  0  0  0  0  0  0  0
  -26.2747   14.2685   30.8534 C   0  0  0  0  0  0  0  0  0  0  0  0
  -25.9364   14.2845   32.1444 N   0  0  0  0  0  0  0  0  0  0  0  0
  -25.4378   15.1301   32.4426 H   0  0  0  0  0  0  0  0  0  0  0  0
  -26.5994   13.8516   32.7921 H   0  0  0  0  0  0  0  0  0  0  0  0
  -25.4108   13.6288   30.0038 N   0  0  0  0  0  0  0  0  0  0  0  0
  -25.8319   13.3716   28.6237 C   0  0  0  0  0  0  0  0  0  0  0  0
  -26.8291   13.7786   28.4260 H   0  0  0  0  0  0  0  0  0  0  0  0
  -25.8926   12.2829   28.5062 H   0  0  0  0  0  0  0  0  0  0  0  0
  -24.8281   13.9516   27.6275 C   0  0  0  0  0  0  0  0  0  0  0  0
  -24.8019   15.0443   27.7168 H   0  0  0  0  0  0  0  0  0  0  0  0
  -25.1411   13.7182   26.6060 H   0  0  0  0  0  0  0  0  0  0  0  0
  -23.4630   13.4784   27.9027 N   0  0  0  0  0  0  0  0  0  0  0  0
  -22.7009   12.9086   26.8876 C   0  0  0  0  0  0  0  0  0  0  0  0
  -23.3105   12.5567   25.8772 O   0  0  0  0  0  0  0  0  0  0  0  0
  -21.2714   12.7365   27.0220 C   0  0  0  0  0  0  0  0  0  0  0  0
  -20.4659   13.7947   27.3388 O   0  0  0  0  0  0  0  0  0  0  0  0
  -19.1860   13.3612   27.3413 C   0  0  0  0  0  0  0  0  0  0  0  0
  -18.3959   14.0276   27.5762 H   0  0  0  0  0  0  0  0  0  0  0  0
  -19.1503   12.0487   27.0144 C   0  0  0  0  0  0  0  0  0  0  0  0
  -18.2817   11.4482   26.9366 H   0  0  0  0  0  0  0  0  0  0  0  0
  -20.4881   11.6439   26.7920 C   0  0  0  0  0  0  0  0  0  0  0  0
  -20.8385   10.6857   26.5031 H   0  0  0  0  0  0  0  0  0  0  0  0
  -23.0199   13.6750   29.2899 C   0  0  0  0  0  0  0  0  0  0  0  0
  -22.0789   13.1595   29.4898 H   0  0  0  0  0  0  0  0  0  0  0  0
  -22.8629   14.7516   29.4231 H   0  0  0  0  0  0  0  0  0  0  0  0
  -24.0518   13.1607   30.3108 C   0  0  0  0  0  0  0  0  0  0  0  0
  -23.7296   13.4659   31.3087 H   0  0  0  0  0  0  0  0  0  0  0  0
  -24.0854   12.0647   30.2872 H   0  0  0  0  0  0  0  0  0  0  0  0
  1  2  2  0
  2  3  1  0
  2  6  1  0
  3  4  1  0
  3  5  1  0
  6  7  1  0
  6 27  1  0
  7  8  1  0
  7  9  1  0
  7 10  1  0
 10 11  1  0
 10 12  1  0
 10 13  1  0
 13 14  1  0
 13 24  1  0
 14 15  2  0
 14 16  1  0
 16 17  1  0
 16 22  2  0
 17 18  1  0
 18 19  1  0
 18 20  2  0
 20 21  1  0
 20 22  1  0
 22 23  1  0
 24 25  1  0
 24 26  1  0
 24 27  1  0
 27 28  1  0
 27 29  1  0
M  END
$$$$
