
     RDKit          3D

 39 40  0  0  0  0  0  0  0  0999 V2000
  -20.0842   12.4668   28.8444 O   0  0  0  0  0  0  0  0  0  0  0  0
  -20.9876   12.6038   28.0254 C   0  0  0  0  0  0  0  0  0  0  0  0
  -20.6785   13.0438   26.5953 C   0  0  0  0  0  0  0  0  0  0  0  0
  -21.1572   12.3209   25.9240 H   0  0  0  0  0  0  0  0  0  0  0  0
  -21.1629   14.0047   26.3829 H   0  0  0  0  0  0  0  0  0  0  0  0
  -19.3009   13.0865   26.2624 O   0  0  0  0  0  0  0  0  0  0  0  0
  -18.6229   14.2709   26.4000 C   0  0  0  0  0  0  0  0  0  0  0  0
  -18.8034   15.4081   25.6136 C   0  0  0  0  0  0  0  0  0  0  0  0
  -19.5037   15.4193   24.8199 H   0  0  0  0  0  0  0  0  0  0  0  0
  -18.0465   16.5457   25.8755 C   0  0  0  0  0  0  0  0  0  0  0  0
  -18.1848   17.4148   25.2835 H   0  0  0  0  0  0  0  0  0  0  0  0
  -17.1077   16.5491   26.9076 C   0  0  0  0  0  0  0  0  0  0  0  0
  -16.3168   17.7908   27.2067 C   0  0  0  0  0  0  0  0  0  0  0  0
  -16.8511   18.4052   27.9381 H   0  0  0  0  0  0  0  0  0  0  0  0
  -15.3301   17.5394   27.6075 H   0  0  0  0  0  0  0  0  0  0  0  0
  -16.1574   18.3808   26.2984 H   0  0  0  0  0  0  0  0  0  0  0  0
  -16.9295   15.4006   27.6804 C   0  0  0  0  0  0  0  0  0  0  0  0
  -16.2150   15.3932   28.4622 H   0  0  0  0  0  0  0  0  0  0  0  0
  -17.6833   14.2593   27.4255 C   0  0  0  0  0  0  0  0  0  0  0  0
  -17.5437   13.3833   28.0047 H   0  0  0  0  0  0  0  0  0  0  0  0
  -22.2690   12.3796   28.4163 N   0  0  0  0  0  0  0  0  0  0  0  0
  -22.5473   11.8172   29.7457 C   0  0  0  0  0  0  0  0  0  0  0  0
  -22.9206   10.7978   29.5838 H   0  0  0  0  0  0  0  0  0  0  0  0
  -21.6383   11.7324   30.3486 H   0  0  0  0  0  0  0  0  0  0  0  0
  -23.5867   12.6396   30.5117 C   0  0  0  0  0  0  0  0  0  0  0  0
  -23.2221   13.6490   30.7289 H   0  0  0  0  0  0  0  0  0  0  0  0
  -23.8734   12.1370   31.4400 H   0  0  0  0  0  0  0  0  0  0  0  0
  -24.8432   12.7866   29.6675 N   0  0  0  0  0  0  0  0  0  0  0  0
  -25.2022   11.8399   29.4781 H   0  0  0  0  0  0  0  0  0  0  0  0
  -25.9273   13.5196   30.4026 C   0  0  0  0  0  0  0  0  0  0  0  0
  -26.8146   13.5403   29.7642 H   0  0  0  0  0  0  0  0  0  0  0  0
  -26.1427   12.9704   31.3234 H   0  0  0  0  0  0  0  0  0  0  0  0
  -25.5790   14.5319   30.6225 H   0  0  0  0  0  0  0  0  0  0  0  0
  -24.5274   13.4342   28.3303 C   0  0  0  0  0  0  0  0  0  0  0  0
  -24.1793   14.4515   28.5392 H   0  0  0  0  0  0  0  0  0  0  0  0
  -25.4570   13.4711   27.7542 H   0  0  0  0  0  0  0  0  0  0  0  0
  -23.4561   12.6236   27.5854 C   0  0  0  0  0  0  0  0  0  0  0  0
  -23.2041   13.1565   26.6672 H   0  0  0  0  0  0  0  0  0  0  0  0
  -23.8550   11.6419   27.3017 H   0  0  0  0  0  0  0  0  0  0  0  0
  1  2  2  0
  2  3  1  0
  2 21  1  0
  3  4  1  0
  3  5  1  0
  3  6  1  0
  6  7  1  0
  7  8  1  0
  7 19  2  0
  8  9  1  0
  8 10  2  0
 10 11  1  0
 10 12  1  0
 12 13  1  0
 12 17  2  0
 13 14  1  0
 13 15  1  0
 13 16  1  0
 17 18  1  0
 17 19  1  0
 19 20  1  0
 21 22  1  0
 21 37  1  0
 22 23  1  0
 22 24  1  0
 22 25  1  0
 25 26  1  0
 25 27  1  0
 25 28  1  0
 28 29  1  0
 28 30  1  0
 28 34  1  0
 30 31  1  0
 30 32  1  0
 30 33  1  0
 34 35  1  0
 34 36  1  0
 34 37  1  0
 37 38  1  0
 37 39  1  0
M  END
$$$$
