
     RDKit          3D

 20 20  0  0  0  0  0  0  0  0999 V2000
  -17.4933   15.7868   26.1120 S   0  0  0  0  0  0  0  0  0  0  0  0
  -16.3712   15.5968   25.2219 O   0  0  0  0  0  0  0  0  0  0  0  0
  -18.4198   16.8872   25.9568 O   0  0  0  0  0  0  0  0  0  0  0  0
  -16.8737   15.8776   27.6777 N   0  0  0  0  0  0  0  0  0  0  0  0
  -17.3226   16.6120   28.2297 H   0  0  0  0  0  0  0  0  0  0  0  0
  -16.8523   14.9653   28.1406 H   0  0  0  0  0  0  0  0  0  0  0  0
  -18.4135   14.2877   26.1841 C   0  0  0  0  0  0  0  0  0  0  0  0
  -19.4170   14.1195   27.1429 C   0  0  0  0  0  0  0  0  0  0  0  0
  -19.6207   14.8803   27.8513 H   0  0  0  0  0  0  0  0  0  0  0  0
  -20.1484   12.9414   27.1513 C   0  0  0  0  0  0  0  0  0  0  0  0
  -21.1072   12.7843   28.0757 F   0  0  0  0  0  0  0  0  0  0  0  0
  -19.9297   11.9226   26.2364 C   0  0  0  0  0  0  0  0  0  0  0  0
  -20.5140   11.0395   26.2762 H   0  0  0  0  0  0  0  0  0  0  0  0
  -18.9394   12.0863   25.2705 C   0  0  0  0  0  0  0  0  0  0  0  0
  -18.7082   11.0249   24.2350 C   0  0  0  0  0  0  0  0  0  0  0  0
  -18.9492   10.0325   24.6303 H   0  0  0  0  0  0  0  0  0  0  0  0
  -17.6582   11.0043   23.9252 H   0  0  0  0  0  0  0  0  0  0  0  0
  -19.3317   11.2169   23.3569 H   0  0  0  0  0  0  0  0  0  0  0  0
  -18.1938   13.2686   25.2469 C   0  0  0  0  0  0  0  0  0  0  0  0
  -17.4478   13.4061   24.5036 H   0  0  0  0  0  0  0  0  0  0  0  0
  1  2  2  0
  1  3  2  0
  1  4  1  0
  1  7  1  0
  4  5  1  0
  4  6  1  0
  7  8  1  0
  7 19  2  0
  8  9  1  0
  8 10  2  0
 10 11  1  0
 10 12  1  0
 12 13  1  0
 12 14  2  0
 14 15  1  0
 14 19  1  0
 15 16  1  0
 15 17  1  0
 15 18  1  0
 19 20  1  0
M  END
$$$$
