
     RDKit          3D

 24 25  0  0  0  0  0  0  0  0999 V2000
  -24.7979   14.0527   28.4856 S   0  0  0  0  0  0  0  0  0  0  0  0
  -25.2646   14.3146   27.1386 O   0  0  0  0  0  0  0  0  0  0  0  0
  -23.8827   14.9685   29.1468 O   0  0  0  0  0  0  0  0  0  0  0  0
  -24.0679   12.4242   28.5399 C   0  0  0  0  0  0  0  0  0  0  0  0
  -23.9960   12.1237   29.5889 H   0  0  0  0  0  0  0  0  0  0  0  0
  -24.7336   11.7421   28.0041 H   0  0  0  0  0  0  0  0  0  0  0  0
  -22.7162   12.4577   27.9177 C   0  0  0  0  0  0  0  0  0  0  0  0
  -21.8811   13.5380   28.0096 N   0  0  0  0  0  0  0  0  0  0  0  0
  -22.0899   14.4359   28.4690 H   0  0  0  0  0  0  0  0  0  0  0  0
  -20.7194   13.2269   27.3838 C   0  0  0  0  0  0  0  0  0  0  0  0
  -20.9000   11.9375   26.9282 C   0  0  0  0  0  0  0  0  0  0  0  0
  -22.1551   11.4860   27.2777 N   0  0  0  0  0  0  0  0  0  0  0  0
  -19.8611   11.3119   26.2264 C   0  0  0  0  0  0  0  0  0  0  0  0
  -19.9932   10.3232   25.8724 H   0  0  0  0  0  0  0  0  0  0  0  0
  -18.6775   12.0053   26.0069 C   0  0  0  0  0  0  0  0  0  0  0  0
  -17.8856   11.5424   25.4767 H   0  0  0  0  0  0  0  0  0  0  0  0
  -18.5167   13.3266   26.4851 C   0  0  0  0  0  0  0  0  0  0  0  0
  -17.6041   13.8379   26.3070 H   0  0  0  0  0  0  0  0  0  0  0  0
  -19.5384   13.9535   27.1802 C   0  0  0  0  0  0  0  0  0  0  0  0
  -19.4319   14.9432   27.5430 H   0  0  0  0  0  0  0  0  0  0  0  0
  -26.2267   13.8778   29.5238 C   0  0  0  0  0  0  0  0  0  0  0  0
  -26.8814   13.1166   29.0961 H   0  0  0  0  0  0  0  0  0  0  0  0
  -26.7428   14.8395   29.5585 H   0  0  0  0  0  0  0  0  0  0  0  0
  -25.9026   13.5916   30.5266 H   0  0  0  0  0  0  0  0  0  0  0  0
  1  2  2  0
  1  3  2  0
  1  4  1  0
  1 21  1  0
  4  5  1  0
  4  6  1  0
  4  7  1  0
  7  8  1  0
  7 12  2  0
  8  9  1  0
  8 10  1  0
 10 11  1  0
 10 19  2  0
 11 12  1  0
 11 13  2  0
 13 14  1  0
 13 15  1  0
 15 16  1  0
 15 17  2  0
 17 18  1  0
 17 19  1  0
 19 20  1  0
 21 22  1  0
 21 23  1  0
 21 24  1  0
M  END
$$$$
