
     RDKit          3D

 18 18  0  0  0  0  0  0  0  0999 V2000
  -19.6241   13.5490   27.5131 O   0  0  0  0  0  0  0  0  0  0  0  0
  -19.9698   12.5497   26.8851 C   0  0  0  0  0  0  0  0  0  0  0  0
  -21.1773   11.9930   27.2068 N   0  0  0  0  0  0  0  0  0  0  0  0
  -21.4831   11.1946   26.6327 H   0  0  0  0  0  0  0  0  0  0  0  0
  -22.0236   12.4827   28.2744 C   0  0  0  0  0  0  0  0  0  0  0  0
  -21.4462   12.4684   29.2055 H   0  0  0  0  0  0  0  0  0  0  0  0
  -22.2794   13.5235   28.0517 H   0  0  0  0  0  0  0  0  0  0  0  0
  -23.2807   11.6477   28.4195 C   0  0  0  0  0  0  0  0  0  0  0  0
  -23.9055   12.0351   29.2298 H   0  0  0  0  0  0  0  0  0  0  0  0
  -23.8683   11.6615   27.4956 H   0  0  0  0  0  0  0  0  0  0  0  0
  -23.0332   10.6047   28.6428 H   0  0  0  0  0  0  0  0  0  0  0  0
  -19.2309   11.9209   25.8182 C   0  0  0  0  0  0  0  0  0  0  0  0
  -19.1935   10.5702   25.6254 N   0  0  0  0  0  0  0  0  0  0  0  0
  -18.4387   10.3404   24.5805 N   0  0  0  0  0  0  0  0  0  0  0  0
  -18.0064   11.5233   24.1186 N   0  0  0  0  0  0  0  0  0  0  0  0
  -17.3886   11.6159   23.2907 H   0  0  0  0  0  0  0  0  0  0  0  0
  -18.4775   12.5157   24.8605 C   0  0  0  0  0  0  0  0  0  0  0  0
  -18.2620   13.5359   24.6729 H   0  0  0  0  0  0  0  0  0  0  0  0
  1  2  2  0
  2  3  1  0
  2 12  1  0
  3  4  1  0
  3  5  1  0
  5  6  1  0
  5  7  1  0
  5  8  1  0
  8  9  1  0
  8 10  1  0
  8 11  1  0
 12 13  1  0
 12 17  2  0
 13 14  2  0
 14 15  1  0
 15 16  1  0
 15 17  1  0
 17 18  1  0
M  END
$$$$
