
     RDKit          3D

 21 21  0  0  0  0  0  0  0  0999 V2000
  -23.9695   12.8410   33.8060 Br  0  0  0  0  0  0  0  0  0  0  0  0
  -23.6385   12.4984   31.9747 C   0  0  0  0  0  0  0  0  0  0  0  0
  -23.8225   13.5047   31.0327 C   0  0  0  0  0  0  0  0  0  0  0  0
  -24.1495   14.4657   31.3264 H   0  0  0  0  0  0  0  0  0  0  0  0
  -23.5789   13.2387   29.6885 C   0  0  0  0  0  0  0  0  0  0  0  0
  -23.7957   14.2582   28.7986 O   0  0  0  0  0  0  0  0  0  0  0  0
  -25.1647   14.4919   28.3882 C   0  0  0  0  0  0  0  0  0  0  0  0
  -25.1537   15.1920   27.5545 H   0  0  0  0  0  0  0  0  0  0  0  0
  -25.7088   14.9043   29.2366 H   0  0  0  0  0  0  0  0  0  0  0  0
  -25.6097   13.5460   28.0809 H   0  0  0  0  0  0  0  0  0  0  0  0
  -23.1342   11.9797   29.2618 C   0  0  0  0  0  0  0  0  0  0  0  0
  -22.8187   11.6636   27.7995 C   0  0  0  0  0  0  0  0  0  0  0  0
  -23.5391   12.1625   27.1700 H   0  0  0  0  0  0  0  0  0  0  0  0
  -22.7914   10.6010   27.6244 H   0  0  0  0  0  0  0  0  0  0  0  0
  -21.4564   12.2245   27.4593 C   0  0  0  0  0  0  0  0  0  0  0  0
  -20.6921   11.5068   26.7752 O   0  0  0  0  0  0  0  0  0  0  0  0
  -21.1536   13.3469   27.9221 O   0  0  0  0  0  0  0  0  0  0  0  0
  -22.9627   10.9815   30.2195 C   0  0  0  0  0  0  0  0  0  0  0  0
  -22.6464   10.0150   29.9123 H   0  0  0  0  0  0  0  0  0  0  0  0
  -23.2122   11.2356   31.5660 C   0  0  0  0  0  0  0  0  0  0  0  0
  -23.0806   10.4645   32.2793 H   0  0  0  0  0  0  0  0  0  0  0  0
  1  2  1  0
  2  3  1  0
  2 20  2  0
  3  4  1  0
  3  5  2  0
  5  6  1  0
  5 11  1  0
  6  7  1  0
  7  8  1  0
  7  9  1  0
  7 10  1  0
 11 12  1  0
 11 18  2  0
 12 13  1  0
 12 14  1  0
 12 15  1  0
 15 16  1  0
 15 17  2  0
 18 19  1  0
 18 20  1  0
 20 21  1  0
M  END
$$$$
