
     RDKit          3D

 29 30  0  0  0  0  0  0  0  0999 V2000
  -17.4228   14.4714   23.4308 O   0  0  0  0  0  0  0  0  0  0  0  0
  -17.4487   13.4965   24.1638 C   0  0  0  0  0  0  0  0  0  0  0  0
  -16.7544   12.4050   23.8351 N   0  0  0  0  0  0  0  0  0  0  0  0
  -15.8715   12.5938   23.3479 H   0  0  0  0  0  0  0  0  0  0  0  0
  -16.7925   11.6269   24.4980 H   0  0  0  0  0  0  0  0  0  0  0  0
  -18.1480   13.4438   25.3410 N   0  0  0  0  0  0  0  0  0  0  0  0
  -18.7356   14.6762   25.8739 C   0  0  0  0  0  0  0  0  0  0  0  0
  -18.5601   15.5259   25.2060 H   0  0  0  0  0  0  0  0  0  0  0  0
  -18.2234   14.8909   26.8197 H   0  0  0  0  0  0  0  0  0  0  0  0
  -20.2354   14.5078   26.1161 C   0  0  0  0  0  0  0  0  0  0  0  0
  -20.7508   14.3371   25.1632 H   0  0  0  0  0  0  0  0  0  0  0  0
  -20.6475   15.4246   26.5468 H   0  0  0  0  0  0  0  0  0  0  0  0
  -20.5158   13.3344   26.9573 N   0  0  0  0  0  0  0  0  0  0  0  0
  -21.3106   13.4598   28.0924 C   0  0  0  0  0  0  0  0  0  0  0  0
  -21.4996   14.6047   28.5045 O   0  0  0  0  0  0  0  0  0  0  0  0
  -21.8753   12.3027   28.7507 C   0  0  0  0  0  0  0  0  0  0  0  0
  -21.8871   12.2098   30.1146 O   0  0  0  0  0  0  0  0  0  0  0  0
  -22.4159   11.0120   30.4486 C   0  0  0  0  0  0  0  0  0  0  0  0
  -22.5274   10.7418   31.4675 H   0  0  0  0  0  0  0  0  0  0  0  0
  -22.7281   10.3244   29.3260 C   0  0  0  0  0  0  0  0  0  0  0  0
  -23.1549    9.3561   29.2853 H   0  0  0  0  0  0  0  0  0  0  0  0
  -22.3681   11.1429   28.2289 C   0  0  0  0  0  0  0  0  0  0  0  0
  -22.4547   10.9212   27.1957 H   0  0  0  0  0  0  0  0  0  0  0  0
  -19.9036   12.0859   26.4821 C   0  0  0  0  0  0  0  0  0  0  0  0
  -19.9925   11.2866   27.2200 H   0  0  0  0  0  0  0  0  0  0  0  0
  -20.4490   11.7890   25.5789 H   0  0  0  0  0  0  0  0  0  0  0  0
  -18.4061   12.2541   26.1644 C   0  0  0  0  0  0  0  0  0  0  0  0
  -18.0518   11.3393   25.6842 H   0  0  0  0  0  0  0  0  0  0  0  0
  -17.8403   12.3882   27.0944 H   0  0  0  0  0  0  0  0  0  0  0  0
  1  2  2  0
  2  3  1  0
  2  6  1  0
  3  4  1  0
  3  5  1  0
  6  7  1  0
  6 27  1  0
  7  8  1  0
  7  9  1  0
  7 10  1  0
 10 11  1  0
 10 12  1  0
 10 13  1  0
 13 14  1  0
 13 24  1  0
 14 15  2  0
 14 16  1  0
 16 17  1  0
 16 22  2  0
 17 18  1  0
 18 19  1  0
 18 20  2  0
 20 21  1  0
 20 22  1  0
 22 23  1  0
 24 25  1  0
 24 26  1  0
 24 27  1  0
 27 28  1  0
 27 29  1  0
M  END
$$$$
