
     RDKit          3D

 16 16  0  0  0  0  0  0  0  0999 V2000
  -22.0496   11.5319   27.6078 Br  0  0  0  0  0  0  0  0  0  0  0  0
  -20.5255   12.3229   26.8746 C   0  0  0  0  0  0  0  0  0  0  0  0
  -19.9956   13.5296   27.1635 C   0  0  0  0  0  0  0  0  0  0  0  0
  -20.2897   14.2851   27.8439 H   0  0  0  0  0  0  0  0  0  0  0  0
  -18.9012   13.6467   26.3766 N   0  0  0  0  0  0  0  0  0  0  0  0
  -17.9780   14.7609   26.2888 C   0  0  0  0  0  0  0  0  0  0  0  0
  -17.3497   14.7266   27.1856 H   0  0  0  0  0  0  0  0  0  0  0  0
  -17.3445   14.5897   25.4113 H   0  0  0  0  0  0  0  0  0  0  0  0
  -18.7054   16.0928   26.1950 C   0  0  0  0  0  0  0  0  0  0  0  0
  -19.2133   16.3047   27.1401 H   0  0  0  0  0  0  0  0  0  0  0  0
  -19.4439   16.1006   25.3864 H   0  0  0  0  0  0  0  0  0  0  0  0
  -17.7671   17.1403   25.9687 O   0  0  0  0  0  0  0  0  0  0  0  0
  -17.3202   16.9481   25.1256 H   0  0  0  0  0  0  0  0  0  0  0  0
  -18.7155   12.5456   25.5980 N   0  0  0  0  0  0  0  0  0  0  0  0
  -19.7072   11.7509   25.9068 C   0  0  0  0  0  0  0  0  0  0  0  0
  -19.8509   10.7981   25.4665 H   0  0  0  0  0  0  0  0  0  0  0  0
  1  2  1  0
  2  3  2  0
  2 15  1  0
  3  4  1  0
  3  5  1  0
  5  6  1  0
  5 14  1  0
  6  7  1  0
  6  8  1  0
  6  9  1  0
  9 10  1  0
  9 11  1  0
  9 12  1  0
 12 13  1  0
 14 15  2  0
 15 16  1  0
M  END
$$$$
