
     RDKit          3D

 30 31  0  0  0  0  0  0  0  0999 V2000
  -19.9722   11.2268   24.9543 F   0  0  0  0  0  0  0  0  0  0  0  0
  -19.4390   12.4261   25.2286 C   0  0  0  0  0  0  0  0  0  0  0  0
  -19.7243   13.0242   26.4502 C   0  0  0  0  0  0  0  0  0  0  0  0
  -20.3555   12.5376   27.1470 H   0  0  0  0  0  0  0  0  0  0  0  0
  -19.1718   14.2691   26.7337 C   0  0  0  0  0  0  0  0  0  0  0  0
  -19.3886   14.7548   27.6479 H   0  0  0  0  0  0  0  0  0  0  0  0
  -18.3394   14.8950   25.7954 C   0  0  0  0  0  0  0  0  0  0  0  0
  -17.7887   16.1386   26.0768 N   0  0  0  0  0  0  0  0  0  0  0  0
  -18.6146   17.3464   26.2096 C   0  0  0  0  0  0  0  0  0  0  0  0
  -18.3952   18.0209   25.3730 H   0  0  0  0  0  0  0  0  0  0  0  0
  -19.6876   17.1261   26.1870 H   0  0  0  0  0  0  0  0  0  0  0  0
  -18.3033   18.0408   27.5447 C   0  0  0  0  0  0  0  0  0  0  0  0
  -18.6322   17.4085   28.3783 H   0  0  0  0  0  0  0  0  0  0  0  0
  -18.8631   18.9794   27.6107 H   0  0  0  0  0  0  0  0  0  0  0  0
  -16.8630   18.2602   27.7305 N   0  0  0  0  0  0  0  0  0  0  0  0
  -16.4161   19.5244   28.0022 C   0  0  0  0  0  0  0  0  0  0  0  0
  -17.1123   20.5230   27.9298 O   0  0  0  0  0  0  0  0  0  0  0  0
  -15.1400   19.6327   28.3801 N   0  0  0  0  0  0  0  0  0  0  0  0
  -14.9018   19.1016   29.2244 H   0  0  0  0  0  0  0  0  0  0  0  0
  -14.4516   19.6928   27.6268 H   0  0  0  0  0  0  0  0  0  0  0  0
  -16.0450   17.0441   27.5735 C   0  0  0  0  0  0  0  0  0  0  0  0
  -14.9765   17.2655   27.6137 H   0  0  0  0  0  0  0  0  0  0  0  0
  -16.2892   16.3848   28.4141 H   0  0  0  0  0  0  0  0  0  0  0  0
  -16.3430   16.3422   26.2380 C   0  0  0  0  0  0  0  0  0  0  0  0
  -15.7659   15.4137   26.1712 H   0  0  0  0  0  0  0  0  0  0  0  0
  -15.9971   16.9777   25.4127 H   0  0  0  0  0  0  0  0  0  0  0  0
  -18.0673   14.2752   24.5645 C   0  0  0  0  0  0  0  0  0  0  0  0
  -17.4352   14.7376   23.8553 H   0  0  0  0  0  0  0  0  0  0  0  0
  -18.6210   13.0304   24.2815 C   0  0  0  0  0  0  0  0  0  0  0  0
  -18.4258   12.5433   23.3622 H   0  0  0  0  0  0  0  0  0  0  0  0
  1  2  1  0
  2  3  1  0
  2 29  2  0
  3  4  1  0
  3  5  2  0
  5  6  1  0
  5  7  1  0
  7  8  1  0
  7 27  2  0
  8  9  1  0
  8 24  1  0
  9 10  1  0
  9 11  1  0
  9 12  1  0
 12 13  1  0
 12 14  1  0
 12 15  1  0
 15 16  1  0
 15 21  1  0
 16 17  2  0
 16 18  1  0
 18 19  1  0
 18 20  1  0
 21 22  1  0
 21 23  1  0
 21 24  1  0
 24 25  1  0
 24 26  1  0
 27 28  1  0
 27 29  1  0
 29 30  1  0
M  END
$$$$
