
     RDKit          3D

 18 18  0  0  0  0  0  0  0  0999 V2000
  -23.6080   10.4399   31.0449 O   0  0  0  0  0  0  0  0  0  0  0  0
  -23.2847   11.5754   30.7004 C   0  0  0  0  0  0  0  0  0  0  0  0
  -23.4234   12.5748   31.6242 N   0  0  0  0  0  0  0  0  0  0  0  0
  -23.0919   13.5088   31.3445 H   0  0  0  0  0  0  0  0  0  0  0  0
  -23.9798   12.3701   32.9450 C   0  0  0  0  0  0  0  0  0  0  0  0
  -24.9981   11.9816   32.8332 H   0  0  0  0  0  0  0  0  0  0  0  0
  -23.3801   11.6055   33.4489 H   0  0  0  0  0  0  0  0  0  0  0  0
  -23.9896   13.6531   33.7528 C   0  0  0  0  0  0  0  0  0  0  0  0
  -24.4122   13.4759   34.7463 H   0  0  0  0  0  0  0  0  0  0  0  0
  -22.9748   14.0456   33.8758 H   0  0  0  0  0  0  0  0  0  0  0  0
  -24.5880   14.4233   33.2553 H   0  0  0  0  0  0  0  0  0  0  0  0
  -22.7461   11.9510   29.4165 C   0  0  0  0  0  0  0  0  0  0  0  0
  -22.3327   13.2168   29.1170 N   0  0  0  0  0  0  0  0  0  0  0  0
  -21.9044   13.2108   27.8797 N   0  0  0  0  0  0  0  0  0  0  0  0
  -22.0424   11.9642   27.4038 N   0  0  0  0  0  0  0  0  0  0  0  0
  -21.7722   11.6934   26.4398 H   0  0  0  0  0  0  0  0  0  0  0  0
  -22.5586   11.1654   28.3274 C   0  0  0  0  0  0  0  0  0  0  0  0
  -22.7513   10.1363   28.1652 H   0  0  0  0  0  0  0  0  0  0  0  0
  1  2  2  0
  2  3  1  0
  2 12  1  0
  3  4  1  0
  3  5  1  0
  5  6  1  0
  5  7  1  0
  5  8  1  0
  8  9  1  0
  8 10  1  0
  8 11  1  0
 12 13  1  0
 12 17  2  0
 13 14  2  0
 14 15  1  0
 15 16  1  0
 15 17  1  0
 17 18  1  0
M  END
$$$$
