
     RDKit          3D

 17 18  0  0  0  0  0  0  0  0999 V2000
  -22.0191   13.0619   28.7311 Br  0  0  0  0  0  0  0  0  0  0  0  0
  -20.8707   12.7483   27.2619 C   0  0  0  0  0  0  0  0  0  0  0  0
  -20.1150   13.7931   26.7354 C   0  0  0  0  0  0  0  0  0  0  0  0
  -20.1694   14.7691   27.1411 H   0  0  0  0  0  0  0  0  0  0  0  0
  -19.2879   13.5131   25.6559 C   0  0  0  0  0  0  0  0  0  0  0  0
  -18.4542   14.3883   24.9758 N   0  0  0  0  0  0  0  0  0  0  0  0
  -18.3149   15.3889   25.1620 H   0  0  0  0  0  0  0  0  0  0  0  0
  -17.7971   13.7567   23.9745 C   0  0  0  0  0  0  0  0  0  0  0  0
  -17.0226   14.3564   23.2664 O   0  0  0  0  0  0  0  0  0  0  0  0
  -18.2147   12.2882   23.9543 C   0  0  0  0  0  0  0  0  0  0  0  0
  -18.6981   12.0521   23.0036 H   0  0  0  0  0  0  0  0  0  0  0  0
  -17.3466   11.6532   24.1459 H   0  0  0  0  0  0  0  0  0  0  0  0
  -19.1858   12.2567   25.0936 C   0  0  0  0  0  0  0  0  0  0  0  0
  -19.9387   11.2127   25.6202 C   0  0  0  0  0  0  0  0  0  0  0  0
  -19.8750   10.2389   25.2043 H   0  0  0  0  0  0  0  0  0  0  0  0
  -20.7817   11.4626   26.7065 C   0  0  0  0  0  0  0  0  0  0  0  0
  -21.3602   10.6754   27.1163 H   0  0  0  0  0  0  0  0  0  0  0  0
  1  2  1  0
  2  3  1  0
  2 16  2  0
  3  4  1  0
  3  5  2  0
  5  6  1  0
  5 13  1  0
  6  7  1  0
  6  8  1  0
  8  9  2  0
  8 10  1  0
 10 11  1  0
 10 12  1  0
 10 13  1  0
 13 14  2  0
 14 15  1  0
 14 16  1  0
 16 17  1  0
M  END
$$$$
