
     RDKit          3D

 19 19  0  0  0  0  0  0  0  0999 V2000
  -18.0925   14.5994   23.9769 O   0  0  0  0  0  0  0  0  0  0  0  0
  -18.2096   14.7210   25.1941 C   0  0  0  0  0  0  0  0  0  0  0  0
  -18.8359   13.6750   25.8693 N   0  0  0  0  0  0  0  0  0  0  0  0
  -19.5871   12.6755   25.1222 C   0  0  0  0  0  0  0  0  0  0  0  0
  -20.5675   12.5466   25.5921 H   0  0  0  0  0  0  0  0  0  0  0  0
  -19.0388   11.7297   25.1565 H   0  0  0  0  0  0  0  0  0  0  0  0
  -19.7384   12.9621   24.0787 H   0  0  0  0  0  0  0  0  0  0  0  0
  -18.7778   13.4698   27.3106 C   0  0  0  0  0  0  0  0  0  0  0  0
  -18.6397   12.4032   27.5157 H   0  0  0  0  0  0  0  0  0  0  0  0
  -19.7232   13.8019   27.7492 H   0  0  0  0  0  0  0  0  0  0  0  0
  -17.9434   14.0085   27.7641 H   0  0  0  0  0  0  0  0  0  0  0  0
  -17.7194   15.8866   25.9070 C   0  0  0  0  0  0  0  0  0  0  0  0
  -16.4000   16.1833   26.0769 C   0  0  0  0  0  0  0  0  0  0  0  0
  -15.5241   15.6683   25.7785 H   0  0  0  0  0  0  0  0  0  0  0  0
  -16.3640   17.3498   26.7427 N   0  0  0  0  0  0  0  0  0  0  0  0
  -15.4978   17.8454   27.0271 H   0  0  0  0  0  0  0  0  0  0  0  0
  -17.6108   17.8277   27.0058 N   0  0  0  0  0  0  0  0  0  0  0  0
  -18.4189   16.9450   26.4910 C   0  0  0  0  0  0  0  0  0  0  0  0
  -19.4755   17.0453   26.5187 H   0  0  0  0  0  0  0  0  0  0  0  0
  1  2  2  0
  2  3  1  0
  2 12  1  0
  3  4  1  0
  3  8  1  0
  4  5  1  0
  4  6  1  0
  4  7  1  0
  8  9  1  0
  8 10  1  0
  8 11  1  0
 12 13  2  0
 12 18  1  0
 13 14  1  0
 13 15  1  0
 15 16  1  0
 15 17  1  0
 17 18  2  0
 18 19  1  0
M  END
$$$$
