
     RDKit          3D

 19 19  0  0  0  0  0  0  0  0999 V2000
  -19.2723    9.9238   24.9954 Br  0  0  0  0  0  0  0  0  0  0  0  0
  -18.9390   11.7430   25.2736 C   0  0  0  0  0  0  0  0  0  0  0  0
  -18.4494   12.5264   24.2737 C   0  0  0  0  0  0  0  0  0  0  0  0
  -18.2421   12.1333   23.3149 H   0  0  0  0  0  0  0  0  0  0  0  0
  -18.1940   13.9144   24.4902 C   0  0  0  0  0  0  0  0  0  0  0  0
  -17.7313   14.6758   23.6310 O   0  0  0  0  0  0  0  0  0  0  0  0
  -18.4770   14.4396   25.7550 N   0  0  0  0  0  0  0  0  0  0  0  0
  -18.2381   15.8592   26.0214 C   0  0  0  0  0  0  0  0  0  0  0  0
  -18.4829   16.4429   25.1255 H   0  0  0  0  0  0  0  0  0  0  0  0
  -18.9249   16.2152   26.8004 H   0  0  0  0  0  0  0  0  0  0  0  0
  -16.7906   16.1358   26.4238 C   0  0  0  0  0  0  0  0  0  0  0  0
  -16.0856   15.5377   25.8372 H   0  0  0  0  0  0  0  0  0  0  0  0
  -16.6335   15.8910   27.4796 H   0  0  0  0  0  0  0  0  0  0  0  0
  -16.4803   17.5123   26.2415 O   0  0  0  0  0  0  0  0  0  0  0  0
  -16.5988   17.7139   25.2959 H   0  0  0  0  0  0  0  0  0  0  0  0
  -18.9719   13.6371   26.7771 C   0  0  0  0  0  0  0  0  0  0  0  0
  -19.1474   14.1230   27.7057 H   0  0  0  0  0  0  0  0  0  0  0  0
  -19.2034   12.3122   26.5509 C   0  0  0  0  0  0  0  0  0  0  0  0
  -19.5814   11.6926   27.3234 H   0  0  0  0  0  0  0  0  0  0  0  0
  1  2  1  0
  2  3  2  0
  2 18  1  0
  3  4  1  0
  3  5  1  0
  5  6  2  0
  5  7  1  0
  7  8  1  0
  7 16  1  0
  8  9  1  0
  8 10  1  0
  8 11  1  0
 11 12  1  0
 11 13  1  0
 11 14  1  0
 14 15  1  0
 16 17  1  0
 16 18  2  0
 18 19  1  0
M  END
$$$$
