
     RDKit          3D

 23 24  0  0  0  0  0  0  0  0999 V2000
  -21.1746   12.3215   28.1402 C   0  0  0  0  0  0  0  0  0  0  0  0
  -21.4003   13.3879   28.2230 H   0  0  0  0  0  0  0  0  0  0  0  0
  -20.6095   11.9888   29.0139 H   0  0  0  0  0  0  0  0  0  0  0  0
  -22.1075   11.7594   28.0538 H   0  0  0  0  0  0  0  0  0  0  0  0
  -20.3774   12.0817   26.9683 N   0  0  0  0  0  0  0  0  0  0  0  0
  -20.2513   10.8343   26.4921 N   0  0  0  0  0  0  0  0  0  0  0  0
  -19.4705   10.8838   25.4390 N   0  0  0  0  0  0  0  0  0  0  0  0
  -19.1199   12.1750   25.2665 C   0  0  0  0  0  0  0  0  0  0  0  0
  -19.6892   12.9389   26.2125 C   0  0  0  0  0  0  0  0  0  0  0  0
  -19.5695   14.4136   26.3541 C   0  0  0  0  0  0  0  0  0  0  0  0
  -20.5121   14.8646   26.0182 H   0  0  0  0  0  0  0  0  0  0  0  0
  -19.4422   14.6904   27.4051 H   0  0  0  0  0  0  0  0  0  0  0  0
  -18.4224   14.9446   25.4599 C   0  0  0  0  0  0  0  0  0  0  0  0
  -17.0926   14.9408   26.2206 C   0  0  0  0  0  0  0  0  0  0  0  0
  -16.1062   15.4532   25.6463 O   0  0  0  0  0  0  0  0  0  0  0  0
  -17.0635   14.3923   27.3432 O   0  0  0  0  0  0  0  0  0  0  0  0
  -18.3647   14.2221   24.0888 C   0  0  0  0  0  0  0  0  0  0  0  0
  -19.2938   14.4481   23.5474 H   0  0  0  0  0  0  0  0  0  0  0  0
  -17.5467   14.6137   23.4727 H   0  0  0  0  0  0  0  0  0  0  0  0
  -18.2252   12.6877   24.2061 C   0  0  0  0  0  0  0  0  0  0  0  0
  -17.1906   12.4190   24.4478 H   0  0  0  0  0  0  0  0  0  0  0  0
  -18.4663   12.2227   23.2433 H   0  0  0  0  0  0  0  0  0  0  0  0
  -18.6210   16.0075   25.2649 H   0  0  0  0  0  0  0  0  0  0  0  0
  1  2  1  0
  1  3  1  0
  1  4  1  0
  1  5  1  0
  5  6  1  0
  5  9  1  0
  6  7  2  0
  7  8  1  0
  8  9  2  0
  8 20  1  0
  9 10  1  0
 10 11  1  0
 10 12  1  0
 10 13  1  0
 13 14  1  0
 13 17  1  0
 13 23  1  0
 14 15  1  0
 14 16  2  0
 17 18  1  0
 17 19  1  0
 17 20  1  0
 20 21  1  0
 20 22  1  0
M  END
$$$$
