
     RDKit          3D

 21 21  0  0  0  0  0  0  0  0999 V2000
  -18.9385    9.8323   24.7871 Br  0  0  0  0  0  0  0  0  0  0  0  0
  -18.9497   11.6594   25.2794 C   0  0  0  0  0  0  0  0  0  0  0  0
  -19.5964   12.0643   26.4420 C   0  0  0  0  0  0  0  0  0  0  0  0
  -20.0882   11.3612   27.0588 H   0  0  0  0  0  0  0  0  0  0  0  0
  -19.6003   13.4115   26.7910 C   0  0  0  0  0  0  0  0  0  0  0  0
  -20.2696   13.7607   27.9348 O   0  0  0  0  0  0  0  0  0  0  0  0
  -21.6614   13.3715   28.0263 C   0  0  0  0  0  0  0  0  0  0  0  0
  -22.0977   13.8733   28.8883 H   0  0  0  0  0  0  0  0  0  0  0  0
  -21.7055   12.2894   28.1414 H   0  0  0  0  0  0  0  0  0  0  0  0
  -22.1752   13.6730   27.1140 H   0  0  0  0  0  0  0  0  0  0  0  0
  -18.9501   14.3720   26.0037 C   0  0  0  0  0  0  0  0  0  0  0  0
  -18.8999   15.8539   26.3769 C   0  0  0  0  0  0  0  0  0  0  0  0
  -19.3252   15.9821   27.3601 H   0  0  0  0  0  0  0  0  0  0  0  0
  -19.3932   16.4621   25.6371 H   0  0  0  0  0  0  0  0  0  0  0  0
  -17.4548   16.2928   26.4490 C   0  0  0  0  0  0  0  0  0  0  0  0
  -17.1693   17.4159   25.9753 O   0  0  0  0  0  0  0  0  0  0  0  0
  -16.6230   15.4908   26.9291 O   0  0  0  0  0  0  0  0  0  0  0  0
  -18.3136   13.9482   24.8382 C   0  0  0  0  0  0  0  0  0  0  0  0
  -17.8336   14.6648   24.2180 H   0  0  0  0  0  0  0  0  0  0  0  0
  -18.3118   12.6034   24.4760 C   0  0  0  0  0  0  0  0  0  0  0  0
  -17.8269   12.2999   23.5853 H   0  0  0  0  0  0  0  0  0  0  0  0
  1  2  1  0
  2  3  1  0
  2 20  2  0
  3  4  1  0
  3  5  2  0
  5  6  1  0
  5 11  1  0
  6  7  1  0
  7  8  1  0
  7  9  1  0
  7 10  1  0
 11 12  1  0
 11 18  2  0
 12 13  1  0
 12 14  1  0
 12 15  1  0
 15 16  1  0
 15 17  2  0
 18 19  1  0
 18 20  1  0
 20 21  1  0
M  END
$$$$
