
     RDKit          3D

 24 24  0  0  0  0  0  0  0  0999 V2000
  -25.5804   14.4402   29.4590 O   0  0  0  0  0  0  0  0  0  0  0  0
  -26.4181   14.0043   29.6969 H   0  0  0  0  0  0  0  0  0  0  0  0
  -25.3884   14.2425   28.0632 C   0  0  0  0  0  0  0  0  0  0  0  0
  -26.3084   14.5228   27.5413 H   0  0  0  0  0  0  0  0  0  0  0  0
  -24.5848   14.9118   27.7408 H   0  0  0  0  0  0  0  0  0  0  0  0
  -24.9954   12.7901   27.7635 C   0  0  0  0  0  0  0  0  0  0  0  0
  -25.0326   12.5874   26.6866 H   0  0  0  0  0  0  0  0  0  0  0  0
  -25.7505   12.1297   28.2082 H   0  0  0  0  0  0  0  0  0  0  0  0
  -23.6758   12.4440   28.3366 N   0  0  0  0  0  0  0  0  0  0  0  0
  -22.5228   12.8152   27.5167 C   0  0  0  0  0  0  0  0  0  0  0  0
  -22.8250   13.1621   26.5213 H   0  0  0  0  0  0  0  0  0  0  0  0
  -21.8608   11.9556   27.3655 H   0  0  0  0  0  0  0  0  0  0  0  0
  -21.9621   13.6290   27.9891 H   0  0  0  0  0  0  0  0  0  0  0  0
  -23.6002   11.8065   29.5510 C   0  0  0  0  0  0  0  0  0  0  0  0
  -24.1089   12.4984   30.5812 N   0  0  0  0  0  0  0  0  0  0  0  0
  -24.4819   13.4274   30.3568 H   0  0  0  0  0  0  0  0  0  0  0  0
  -24.1399   12.0184   31.8603 C   0  0  0  0  0  0  0  0  0  0  0  0
  -24.5720   12.6638   32.5851 H   0  0  0  0  0  0  0  0  0  0  0  0
  -23.6275   10.7695   32.1231 C   0  0  0  0  0  0  0  0  0  0  0  0
  -23.6418   10.3762   33.1081 H   0  0  0  0  0  0  0  0  0  0  0  0
  -23.0737   10.0076   31.0791 C   0  0  0  0  0  0  0  0  0  0  0  0
  -22.6671    9.0453   31.2790 H   0  0  0  0  0  0  0  0  0  0  0  0
  -23.0554   10.5200   29.8037 C   0  0  0  0  0  0  0  0  0  0  0  0
  -22.6252    9.9639   29.0140 H   0  0  0  0  0  0  0  0  0  0  0  0
  1  2  1  0
  1  3  1  0
  3  4  1  0
  3  5  1  0
  3  6  1  0
  6  7  1  0
  6  8  1  0
  6  9  1  0
  9 10  1  0
  9 14  1  0
 10 11  1  0
 10 12  1  0
 10 13  1  0
 14 15  1  0
 14 23  2  0
 15 16  1  0
 15 17  2  0
 17 18  1  0
 17 19  1  0
 19 20  1  0
 19 21  2  0
 21 22  1  0
 21 23  1  0
 23 24  1  0
M  END
$$$$
