
     RDKit          3D

 23 23  0  0  0  0  0  0  0  0999 V2000
  -24.5536   13.5132   29.8922 S   0  0  0  0  0  0  0  0  0  0  0  0
  -24.7245   12.8173   28.6269 O   0  0  0  0  0  0  0  0  0  0  0  0
  -23.4309   13.2086   30.7585 O   0  0  0  0  0  0  0  0  0  0  0  0
  -26.0473   13.3033   30.8253 C   0  0  0  0  0  0  0  0  0  0  0  0
  -26.8946   13.6340   30.2210 H   0  0  0  0  0  0  0  0  0  0  0  0
  -25.9797   13.8824   31.7483 H   0  0  0  0  0  0  0  0  0  0  0  0
  -26.1527   12.2430   31.0620 H   0  0  0  0  0  0  0  0  0  0  0  0
  -24.5210   15.2535   29.5657 C   0  0  0  0  0  0  0  0  0  0  0  0
  -23.8313   16.1686   30.3799 C   0  0  0  0  0  0  0  0  0  0  0  0
  -23.1503   15.7121   31.5055 N   0  0  0  0  0  0  0  0  0  0  0  0
  -23.1205   14.6925   31.6506 H   0  0  0  0  0  0  0  0  0  0  0  0
  -22.5131   16.5449   32.4966 C   0  0  0  0  0  0  0  0  0  0  0  0
  -21.7486   17.1848   32.0431 H   0  0  0  0  0  0  0  0  0  0  0  0
  -22.0190   15.9130   33.2413 H   0  0  0  0  0  0  0  0  0  0  0  0
  -23.2455   17.1658   33.0216 H   0  0  0  0  0  0  0  0  0  0  0  0
  -23.8061   17.5288   30.0442 C   0  0  0  0  0  0  0  0  0  0  0  0
  -23.2656   18.2193   30.6352 H   0  0  0  0  0  0  0  0  0  0  0  0
  -24.4944   17.9826   28.9270 C   0  0  0  0  0  0  0  0  0  0  0  0
  -24.4818   19.0131   28.6789 H   0  0  0  0  0  0  0  0  0  0  0  0
  -25.2044   17.0882   28.1328 C   0  0  0  0  0  0  0  0  0  0  0  0
  -25.7360   17.4384   27.2840 H   0  0  0  0  0  0  0  0  0  0  0  0
  -25.2130   15.7334   28.4509 C   0  0  0  0  0  0  0  0  0  0  0  0
  -25.7521   15.0561   27.8382 H   0  0  0  0  0  0  0  0  0  0  0  0
  1  2  2  0
  1  3  2  0
  1  4  1  0
  1  8  1  0
  4  5  1  0
  4  6  1  0
  4  7  1  0
  8  9  1  0
  8 22  2  0
  9 10  1  0
  9 16  2  0
 10 11  1  0
 10 12  1  0
 12 13  1  0
 12 14  1  0
 12 15  1  0
 16 17  1  0
 16 18  1  0
 18 19  1  0
 18 20  2  0
 20 21  1  0
 20 22  1  0
 22 23  1  0
M  END
$$$$
