
     RDKit          3D

 24 25  0  0  0  0  0  0  0  0999 V2000
  -18.4492   18.8990   26.2903 S   0  0  0  0  0  0  0  0  0  0  0  0
  -19.7424   19.1134   25.6719 O   0  0  0  0  0  0  0  0  0  0  0  0
  -17.2819   18.5837   25.4832 O   0  0  0  0  0  0  0  0  0  0  0  0
  -18.6055   17.6293   27.5358 C   0  0  0  0  0  0  0  0  0  0  0  0
  -17.6874   17.6273   28.1298 H   0  0  0  0  0  0  0  0  0  0  0  0
  -19.4570   17.8880   28.1711 H   0  0  0  0  0  0  0  0  0  0  0  0
  -18.8023   16.3060   26.8834 C   0  0  0  0  0  0  0  0  0  0  0  0
  -18.2472   15.9820   25.6752 N   0  0  0  0  0  0  0  0  0  0  0  0
  -17.6801   16.5992   25.0767 H   0  0  0  0  0  0  0  0  0  0  0  0
  -18.5757   14.6976   25.3916 C   0  0  0  0  0  0  0  0  0  0  0  0
  -19.3336   14.2830   26.4670 C   0  0  0  0  0  0  0  0  0  0  0  0
  -19.4560   15.3088   27.3802 N   0  0  0  0  0  0  0  0  0  0  0  0
  -19.8359   12.9751   26.4816 C   0  0  0  0  0  0  0  0  0  0  0  0
  -20.4197   12.6506   27.3028 H   0  0  0  0  0  0  0  0  0  0  0  0
  -19.5592   12.1306   25.4139 C   0  0  0  0  0  0  0  0  0  0  0  0
  -19.9347   11.1399   25.4139 H   0  0  0  0  0  0  0  0  0  0  0  0
  -18.7788   12.5794   24.3231 C   0  0  0  0  0  0  0  0  0  0  0  0
  -18.5787   11.9177   23.5181 H   0  0  0  0  0  0  0  0  0  0  0  0
  -18.2776   13.8711   24.2998 C   0  0  0  0  0  0  0  0  0  0  0  0
  -17.6925   14.2207   23.4886 H   0  0  0  0  0  0  0  0  0  0  0  0
  -18.0664   20.3437   27.2477 C   0  0  0  0  0  0  0  0  0  0  0  0
  -18.8908   20.5384   27.9358 H   0  0  0  0  0  0  0  0  0  0  0  0
  -17.9439   21.1846   26.5620 H   0  0  0  0  0  0  0  0  0  0  0  0
  -17.1374   20.1696   27.7949 H   0  0  0  0  0  0  0  0  0  0  0  0
  1  2  2  0
  1  3  2  0
  1  4  1  0
  1 21  1  0
  4  5  1  0
  4  6  1  0
  4  7  1  0
  7  8  1  0
  7 12  2  0
  8  9  1  0
  8 10  1  0
 10 11  1  0
 10 19  2  0
 11 12  1  0
 11 13  2  0
 13 14  1  0
 13 15  1  0
 15 16  1  0
 15 17  2  0
 17 18  1  0
 17 19  1  0
 19 20  1  0
 21 22  1  0
 21 23  1  0
 21 24  1  0
M  END
$$$$
