
     RDKit          3D

 29 31  0  0  0  0  0  0  0  0999 V2000
  -15.0442   17.2144   27.6661 O   0  0  0  0  0  0  0  0  0  0  0  0
  -15.0244   17.4578   26.4803 C   0  0  0  0  0  0  0  0  0  0  0  0
  -15.7854   16.7604   25.5925 N   0  0  0  0  0  0  0  0  0  0  0  0
  -15.6892   17.0186   24.6069 H   0  0  0  0  0  0  0  0  0  0  0  0
  -16.6782   15.7371   25.8094 C   0  0  0  0  0  0  0  0  0  0  0  0
  -17.2648   15.3500   27.3980 S   0  0  0  0  0  0  0  0  0  0  0  0
  -18.2127   14.0922   26.6833 C   0  0  0  0  0  0  0  0  0  0  0  0
  -18.0024   14.0756   25.3052 C   0  0  0  0  0  0  0  0  0  0  0  0
  -17.1171   15.0287   24.8170 N   0  0  0  0  0  0  0  0  0  0  0  0
  -18.6818   13.1244   24.5262 C   0  0  0  0  0  0  0  0  0  0  0  0
  -18.5253   13.1064   23.4796 H   0  0  0  0  0  0  0  0  0  0  0  0
  -19.5450   12.2213   25.1299 C   0  0  0  0  0  0  0  0  0  0  0  0
  -20.0554   11.5063   24.5392 H   0  0  0  0  0  0  0  0  0  0  0  0
  -19.7396   12.2624   26.5289 C   0  0  0  0  0  0  0  0  0  0  0  0
  -20.5667   11.4245   27.2346 O   0  0  0  0  0  0  0  0  0  0  0  0
  -21.7791   11.9747   27.7366 C   0  0  0  0  0  0  0  0  0  0  0  0
  -22.4245   12.3167   26.9206 H   0  0  0  0  0  0  0  0  0  0  0  0
  -22.3108   11.1809   28.2699 H   0  0  0  0  0  0  0  0  0  0  0  0
  -21.5812   12.7805   28.4510 H   0  0  0  0  0  0  0  0  0  0  0  0
  -19.0808   13.1908   27.3140 C   0  0  0  0  0  0  0  0  0  0  0  0
  -19.2270   13.2183   28.3622 H   0  0  0  0  0  0  0  0  0  0  0  0
  -14.1914   18.5380   25.9078 C   0  0  0  0  0  0  0  0  0  0  0  0
  -13.1354   18.2878   25.8526 H   0  0  0  0  0  0  0  0  0  0  0  0
  -14.5482   19.9907   26.1170 C   0  0  0  0  0  0  0  0  0  0  0  0
  -15.4472   20.2442   26.6676 H   0  0  0  0  0  0  0  0  0  0  0  0
  -13.7375   20.6978   26.2437 H   0  0  0  0  0  0  0  0  0  0  0  0
  -14.7255   19.3663   24.7645 C   0  0  0  0  0  0  0  0  0  0  0  0
  -14.0352   19.6466   23.9781 H   0  0  0  0  0  0  0  0  0  0  0  0
  -15.7364   19.1766   24.4192 H   0  0  0  0  0  0  0  0  0  0  0  0
  1  2  2  0
  2  3  1  0
  2 22  1  0
  3  4  1  0
  3  5  1  0
  5  6  1  0
  5  9  2  0
  6  7  1  0
  7  8  1  0
  7 20  2  0
  8  9  1  0
  8 10  2  0
 10 11  1  0
 10 12  1  0
 12 13  1  0
 12 14  2  0
 14 15  1  0
 14 20  1  0
 15 16  1  0
 16 17  1  0
 16 18  1  0
 16 19  1  0
 20 21  1  0
 22 23  1  0
 22 24  1  0
 22 27  1  0
 24 25  1  0
 24 26  1  0
 24 27  1  0
 27 28  1  0
 27 29  1  0
M  END
$$$$
