
     RDKit          3D

 14 14  0  0  0  0  0  0  0  0999 V2000
  -18.0693   10.8730   24.8623 O   0  0  0  0  0  0  0  0  0  0  0  0
  -18.9193   11.7513   24.5473 C   0  0  0  0  0  0  0  0  0  0  0  0
  -19.8635   11.4546   23.7568 O   0  0  0  0  0  0  0  0  0  0  0  0
  -18.8133   13.0982   25.0937 C   0  0  0  0  0  0  0  0  0  0  0  0
  -19.1621   13.5190   26.3663 C   0  0  0  0  0  0  0  0  0  0  0  0
  -19.7268   12.6330   27.4380 C   0  0  0  0  0  0  0  0  0  0  0  0
  -19.9251   13.1976   28.3548 H   0  0  0  0  0  0  0  0  0  0  0  0
  -19.0222   11.8343   27.6905 H   0  0  0  0  0  0  0  0  0  0  0  0
  -20.6754   12.1918   27.1140 H   0  0  0  0  0  0  0  0  0  0  0  0
  -18.9333   14.8886   26.5758 C   0  0  0  0  0  0  0  0  0  0  0  0
  -19.1387   15.3847   27.4886 H   0  0  0  0  0  0  0  0  0  0  0  0
  -18.4168   15.5192   25.4816 C   0  0  0  0  0  0  0  0  0  0  0  0
  -18.1600   16.5425   25.3883 H   0  0  0  0  0  0  0  0  0  0  0  0
  -18.1994   14.4354   24.1624 S   0  0  0  0  0  0  0  0  0  0  0  0
  1  2  1  0
  2  3  2  0
  2  4  1  0
  4  5  2  0
  4 14  1  0
  5  6  1  0
  5 10  1  0
  6  7  1  0
  6  8  1  0
  6  9  1  0
 10 11  1  0
 10 12  2  0
 12 13  1  0
 12 14  1  0
M  END
$$$$
