
     RDKit          3D

 23 24  0  0  0  0  0  0  0  0999 V2000
  -16.4035   16.3872   25.9206 N   0  0  0  0  0  0  0  0  0  0  0  0
  -15.8284   15.5312   25.9410 H   0  0  0  0  0  0  0  0  0  0  0  0
  -16.3595   16.6952   24.9389 H   0  0  0  0  0  0  0  0  0  0  0  0
  -17.8200   15.9989   26.2215 C   0  0  0  0  0  0  0  0  0  0  0  0
  -17.8627   15.7590   27.2880 H   0  0  0  0  0  0  0  0  0  0  0  0
  -18.4399   16.8770   26.0109 H   0  0  0  0  0  0  0  0  0  0  0  0
  -18.2399   14.8432   25.3968 C   0  0  0  0  0  0  0  0  0  0  0  0
  -18.8812   13.7565   25.8466 N   0  0  0  0  0  0  0  0  0  0  0  0
  -19.0695   12.9501   24.7768 C   0  0  0  0  0  0  0  0  0  0  0  0
  -18.5629   13.5341   23.7151 N   0  0  0  0  0  0  0  0  0  0  0  0
  -18.0473   14.7245   24.1144 N   0  0  0  0  0  0  0  0  0  0  0  0
  -19.7346   11.7017   24.9649 C   0  0  0  0  0  0  0  0  0  0  0  0
  -19.8810   11.0682   24.1280 H   0  0  0  0  0  0  0  0  0  0  0  0
  -20.1682   11.3436   26.2092 C   0  0  0  0  0  0  0  0  0  0  0  0
  -20.6637   10.4183   26.3651 H   0  0  0  0  0  0  0  0  0  0  0  0
  -19.9539   12.2237   27.3159 C   0  0  0  0  0  0  0  0  0  0  0  0
  -20.2993   11.9303   28.2764 H   0  0  0  0  0  0  0  0  0  0  0  0
  -19.3161   13.4205   27.1407 C   0  0  0  0  0  0  0  0  0  0  0  0
  -19.1178   14.1284   27.9022 H   0  0  0  0  0  0  0  0  0  0  0  0
  -15.8242   17.4180   26.8134 C   0  0  0  0  0  0  0  0  0  0  0  0
  -15.8365   17.0345   27.8357 H   0  0  0  0  0  0  0  0  0  0  0  0
  -16.4232   18.3270   26.7223 H   0  0  0  0  0  0  0  0  0  0  0  0
  -14.7989   17.6002   26.4833 H   0  0  0  0  0  0  0  0  0  0  0  0
  1  2  1  0
  1  3  1  0
  1  4  1  0
  1 20  1  0
  4  5  1  0
  4  6  1  0
  4  7  1  0
  7  8  1  0
  7 11  2  0
  8  9  1  0
  8 18  1  0
  9 10  2  0
  9 12  1  0
 10 11  1  0
 12 13  1  0
 12 14  2  0
 14 15  1  0
 14 16  1  0
 16 17  1  0
 16 18  2  0
 18 19  1  0
 20 21  1  0
 20 22  1  0
 20 23  1  0
M  END
$$$$
