
     RDKit          3D

 27 27  0  0  0  0  0  0  0  0999 V2000
  -20.3531   12.1459   26.8314 S   0  0  0  0  0  0  0  0  0  0  0  0
  -20.4067   10.7628   26.4114 O   0  0  0  0  0  0  0  0  0  0  0  0
  -20.0957   13.2202   25.8976 O   0  0  0  0  0  0  0  0  0  0  0  0
  -19.1813   12.2501   28.0395 N   0  0  0  0  0  0  0  0  0  0  0  0
  -19.1691   13.1687   28.4890 H   0  0  0  0  0  0  0  0  0  0  0  0
  -18.2628   11.9377   27.7150 H   0  0  0  0  0  0  0  0  0  0  0  0
  -21.8174   12.5197   27.7279 C   0  0  0  0  0  0  0  0  0  0  0  0
  -21.8705   12.3381   29.1130 C   0  0  0  0  0  0  0  0  0  0  0  0
  -21.0058   12.0006   29.6305 H   0  0  0  0  0  0  0  0  0  0  0  0
  -23.0441   12.5849   29.8160 C   0  0  0  0  0  0  0  0  0  0  0  0
  -23.0682   12.4375   30.8665 H   0  0  0  0  0  0  0  0  0  0  0  0
  -24.1878   13.0137   29.1454 C   0  0  0  0  0  0  0  0  0  0  0  0
  -25.4764   13.2121   29.8950 C   0  0  0  0  0  0  0  0  0  0  0  0
  -25.9218   12.2474   30.1683 H   0  0  0  0  0  0  0  0  0  0  0  0
  -26.2124   13.7395   29.2758 H   0  0  0  0  0  0  0  0  0  0  0  0
  -25.2490   13.9804   31.1000 N   0  0  0  0  0  0  0  0  0  0  0  0
  -25.5429   13.5756   31.9722 H   0  0  0  0  0  0  0  0  0  0  0  0
  -24.6765   15.1762   31.0828 C   0  0  0  0  0  0  0  0  0  0  0  0
  -24.3038   15.7028   30.0449 O   0  0  0  0  0  0  0  0  0  0  0  0
  -24.5094   15.8246   32.4272 C   0  0  0  0  0  0  0  0  0  0  0  0
  -25.4654   15.8382   32.9586 H   0  0  0  0  0  0  0  0  0  0  0  0
  -23.7752   15.2662   33.0150 H   0  0  0  0  0  0  0  0  0  0  0  0
  -24.1614   16.8533   32.3000 H   0  0  0  0  0  0  0  0  0  0  0  0
  -24.1459   13.1868   27.7642 C   0  0  0  0  0  0  0  0  0  0  0  0
  -25.0154   13.4995   27.2422 H   0  0  0  0  0  0  0  0  0  0  0  0
  -22.9712   12.9388   27.0611 C   0  0  0  0  0  0  0  0  0  0  0  0
  -22.9519   13.0613   26.0061 H   0  0  0  0  0  0  0  0  0  0  0  0
  1  2  2  0
  1  3  2  0
  1  4  1  0
  1  7  1  0
  4  5  1  0
  4  6  1  0
  7  8  1  0
  7 26  2  0
  8  9  1  0
  8 10  2  0
 10 11  1  0
 10 12  1  0
 12 13  1  0
 12 24  2  0
 13 14  1  0
 13 15  1  0
 13 16  1  0
 16 17  1  0
 16 18  1  0
 18 19  2  0
 18 20  1  0
 20 21  1  0
 20 22  1  0
 20 23  1  0
 24 25  1  0
 24 26  1  0
 26 27  1  0
M  END
$$$$
