
     RDKit          3D

 24 24  0  0  0  0  0  0  0  0999 V2000
  -17.3853   14.7088   24.4134 O   0  0  0  0  0  0  0  0  0  0  0  0
  -18.0478   14.6431   25.4413 C   0  0  0  0  0  0  0  0  0  0  0  0
  -17.9873   15.5534   26.4508 O   0  0  0  0  0  0  0  0  0  0  0  0
  -16.9891   16.5687   26.2863 C   0  0  0  0  0  0  0  0  0  0  0  0
  -16.0475   16.1118   25.9637 H   0  0  0  0  0  0  0  0  0  0  0  0
  -17.3234   17.2960   25.5383 H   0  0  0  0  0  0  0  0  0  0  0  0
  -16.7930   17.2591   27.6218 C   0  0  0  0  0  0  0  0  0  0  0  0
  -16.4822   16.5392   28.3867 H   0  0  0  0  0  0  0  0  0  0  0  0
  -17.7327   17.7043   27.9659 H   0  0  0  0  0  0  0  0  0  0  0  0
  -16.0358   18.0450   27.5477 H   0  0  0  0  0  0  0  0  0  0  0  0
  -18.9356   13.6265   25.6819 N   0  0  0  0  0  0  0  0  0  0  0  0
  -19.1505   12.5628   24.7016 C   0  0  0  0  0  0  0  0  0  0  0  0
  -20.1552   12.7183   24.2916 H   0  0  0  0  0  0  0  0  0  0  0  0
  -18.4331   12.6272   23.8772 H   0  0  0  0  0  0  0  0  0  0  0  0
  -19.0691   11.1912   25.3719 C   0  0  0  0  0  0  0  0  0  0  0  0
  -18.0515   10.9815   25.7233 H   0  0  0  0  0  0  0  0  0  0  0  0
  -19.3472   10.4080   24.6593 H   0  0  0  0  0  0  0  0  0  0  0  0
  -19.9725   11.1116   26.4841 O   0  0  0  0  0  0  0  0  0  0  0  0
  -19.6506   12.1009   27.4735 C   0  0  0  0  0  0  0  0  0  0  0  0
  -20.3552   11.9850   28.3031 H   0  0  0  0  0  0  0  0  0  0  0  0
  -18.6422   11.9043   27.8581 H   0  0  0  0  0  0  0  0  0  0  0  0
  -19.7538   13.5113   26.8911 C   0  0  0  0  0  0  0  0  0  0  0  0
  -19.4737   14.2511   27.6461 H   0  0  0  0  0  0  0  0  0  0  0  0
  -20.7865   13.7136   26.5847 H   0  0  0  0  0  0  0  0  0  0  0  0
  1  2  2  0
  2  3  1  0
  2 11  1  0
  3  4  1  0
  4  5  1  0
  4  6  1  0
  4  7  1  0
  7  8  1  0
  7  9  1  0
  7 10  1  0
 11 12  1  0
 11 22  1  0
 12 13  1  0
 12 14  1  0
 12 15  1  0
 15 16  1  0
 15 17  1  0
 15 18  1  0
 18 19  1  0
 19 20  1  0
 19 21  1  0
 19 22  1  0
 22 23  1  0
 22 24  1  0
M  END
$$$$
