
     RDKit          3D

 14 14  0  0  0  0  0  0  0  0999 V2000
  -17.9546   13.1911   23.0546 O   0  0  0  0  0  0  0  0  0  0  0  0
  -17.8577   13.7186   24.1973 C   0  0  0  0  0  0  0  0  0  0  0  0
  -16.9163   14.5322   24.4341 O   0  0  0  0  0  0  0  0  0  0  0  0
  -18.8270   13.3928   25.2357 C   0  0  0  0  0  0  0  0  0  0  0  0
  -19.2216   14.1899   26.2974 C   0  0  0  0  0  0  0  0  0  0  0  0
  -18.7040   15.5718   26.5712 C   0  0  0  0  0  0  0  0  0  0  0  0
  -19.1642   15.9962   27.4693 H   0  0  0  0  0  0  0  0  0  0  0  0
  -18.9327   16.2427   25.7370 H   0  0  0  0  0  0  0  0  0  0  0  0
  -17.6215   15.5529   26.7362 H   0  0  0  0  0  0  0  0  0  0  0  0
  -20.1792   13.5763   27.1210 C   0  0  0  0  0  0  0  0  0  0  0  0
  -20.5972   14.0367   27.9782 H   0  0  0  0  0  0  0  0  0  0  0  0
  -20.5198   12.3223   26.7045 C   0  0  0  0  0  0  0  0  0  0  0  0
  -21.2138   11.6600   27.1533 H   0  0  0  0  0  0  0  0  0  0  0  0
  -19.6649   11.8670   25.2819 S   0  0  0  0  0  0  0  0  0  0  0  0
  1  2  1  0
  2  3  2  0
  2  4  1  0
  4  5  2  0
  4 14  1  0
  5  6  1  0
  5 10  1  0
  6  7  1  0
  6  8  1  0
  6  9  1  0
 10 11  1  0
 10 12  2  0
 12 13  1  0
 12 14  1  0
M  END
$$$$
