
     RDKit          3D

 26 26  0  0  0  0  0  0  0  0999 V2000
  -15.2239   17.9777   26.6714 S   0  0  0  0  0  0  0  0  0  0  0  0
  -14.3460   16.9033   27.0811 O   0  0  0  0  0  0  0  0  0  0  0  0
  -15.5866   19.0490   27.5747 O   0  0  0  0  0  0  0  0  0  0  0  0
  -16.6640   17.3215   26.0944 N   0  0  0  0  0  0  0  0  0  0  0  0
  -16.8189   17.4436   25.0905 H   0  0  0  0  0  0  0  0  0  0  0  0
  -17.2004   16.0894   26.7033 C   0  0  0  0  0  0  0  0  0  0  0  0
  -16.6107   15.2452   26.3294 H   0  0  0  0  0  0  0  0  0  0  0  0
  -17.1065   16.1178   27.7944 H   0  0  0  0  0  0  0  0  0  0  0  0
  -18.6638   15.8916   26.3010 C   0  0  0  0  0  0  0  0  0  0  0  0
  -19.3327   16.2286   27.1037 H   0  0  0  0  0  0  0  0  0  0  0  0
  -18.8871   16.5312   25.4376 H   0  0  0  0  0  0  0  0  0  0  0  0
  -18.9898   14.4594   25.9378 C   0  0  0  0  0  0  0  0  0  0  0  0
  -19.5032   13.5896   26.9071 C   0  0  0  0  0  0  0  0  0  0  0  0
  -19.6524   13.9262   27.9000 H   0  0  0  0  0  0  0  0  0  0  0  0
  -19.8205   12.2754   26.5725 C   0  0  0  0  0  0  0  0  0  0  0  0
  -20.2092   11.6079   27.2973 H   0  0  0  0  0  0  0  0  0  0  0  0
  -19.6207   11.8505   25.2669 C   0  0  0  0  0  0  0  0  0  0  0  0
  -19.9258   10.5856   24.9432 F   0  0  0  0  0  0  0  0  0  0  0  0
  -19.1184   12.6929   24.2857 C   0  0  0  0  0  0  0  0  0  0  0  0
  -18.9838   12.3406   23.2968 H   0  0  0  0  0  0  0  0  0  0  0  0
  -18.8017   14.0053   24.6284 C   0  0  0  0  0  0  0  0  0  0  0  0
  -18.4245   14.6627   23.8863 H   0  0  0  0  0  0  0  0  0  0  0  0
  -14.5515   18.7175   25.1989 C   0  0  0  0  0  0  0  0  0  0  0  0
  -14.3297   17.9352   24.4709 H   0  0  0  0  0  0  0  0  0  0  0  0
  -13.6294   19.2344   25.4740 H   0  0  0  0  0  0  0  0  0  0  0  0
  -15.2722   19.4338   24.8010 H   0  0  0  0  0  0  0  0  0  0  0  0
  1  2  2  0
  1  3  2  0
  1  4  1  0
  1 23  1  0
  4  5  1  0
  4  6  1  0
  6  7  1  0
  6  8  1  0
  6  9  1  0
  9 10  1  0
  9 11  1  0
  9 12  1  0
 12 13  1  0
 12 21  2  0
 13 14  1  0
 13 15  2  0
 15 16  1  0
 15 17  1  0
 17 18  1  0
 17 19  2  0
 19 20  1  0
 19 21  1  0
 21 22  1  0
 23 24  1  0
 23 25  1  0
 23 26  1  0
M  END
$$$$
