
     RDKit          3D

 24 24  0  0  0  0  0  0  0  0999 V2000
  -23.7343   11.9335   30.1045 O   0  0  0  0  0  0  0  0  0  0  0  0
  -23.9113   12.7257   29.1875 C   0  0  0  0  0  0  0  0  0  0  0  0
  -22.9897   13.0014   28.2252 O   0  0  0  0  0  0  0  0  0  0  0  0
  -21.8095   12.1895   28.2721 C   0  0  0  0  0  0  0  0  0  0  0  0
  -21.3608   12.2477   29.2695 H   0  0  0  0  0  0  0  0  0  0  0  0
  -22.0682   11.1501   28.0423 H   0  0  0  0  0  0  0  0  0  0  0  0
  -20.8326   12.7157   27.2390 C   0  0  0  0  0  0  0  0  0  0  0  0
  -20.5833   13.7630   27.4415 H   0  0  0  0  0  0  0  0  0  0  0  0
  -21.2762   12.6814   26.2381 H   0  0  0  0  0  0  0  0  0  0  0  0
  -19.9108   12.1270   27.2375 H   0  0  0  0  0  0  0  0  0  0  0  0
  -25.0796   13.4266   29.0346 N   0  0  0  0  0  0  0  0  0  0  0  0
  -26.1949   13.2488   29.9637 C   0  0  0  0  0  0  0  0  0  0  0  0
  -26.9804   12.7244   29.4072 H   0  0  0  0  0  0  0  0  0  0  0  0
  -25.9093   12.6259   30.8174 H   0  0  0  0  0  0  0  0  0  0  0  0
  -26.7143   14.6040   30.4438 C   0  0  0  0  0  0  0  0  0  0  0  0
  -25.9709   15.1149   31.0679 H   0  0  0  0  0  0  0  0  0  0  0  0
  -27.6204   14.4680   31.0430 H   0  0  0  0  0  0  0  0  0  0  0  0
  -27.0478   15.4468   29.3312 O   0  0  0  0  0  0  0  0  0  0  0  0
  -25.8946   15.6871   28.5105 C   0  0  0  0  0  0  0  0  0  0  0  0
  -26.1992   16.3459   27.6912 H   0  0  0  0  0  0  0  0  0  0  0  0
  -25.1391   16.2158   29.1047 H   0  0  0  0  0  0  0  0  0  0  0  0
  -25.3386   14.3769   27.9507 C   0  0  0  0  0  0  0  0  0  0  0  0
  -24.4422   14.5727   27.3559 H   0  0  0  0  0  0  0  0  0  0  0  0
  -26.0821   13.9048   27.2984 H   0  0  0  0  0  0  0  0  0  0  0  0
  1  2  2  0
  2  3  1  0
  2 11  1  0
  3  4  1  0
  4  5  1  0
  4  6  1  0
  4  7  1  0
  7  8  1  0
  7  9  1  0
  7 10  1  0
 11 12  1  0
 11 22  1  0
 12 13  1  0
 12 14  1  0
 12 15  1  0
 15 16  1  0
 15 17  1  0
 15 18  1  0
 18 19  1  0
 19 20  1  0
 19 21  1  0
 19 22  1  0
 22 23  1  0
 22 24  1  0
M  END
$$$$
