
     RDKit          3D

 26 27  0  0  0  0  0  0  0  0999 V2000
  -23.7387   11.8885   26.3853 O   0  0  0  0  0  0  0  0  0  0  0  0
  -23.9318   12.7487   27.2539 C   0  0  0  0  0  0  0  0  0  0  0  0
  -23.0225   12.8803   28.3122 N   0  0  0  0  0  0  0  0  0  0  0  0
  -21.8340   12.0346   28.3875 C   0  0  0  0  0  0  0  0  0  0  0  0
  -21.3635   12.1811   29.3671 H   0  0  0  0  0  0  0  0  0  0  0  0
  -22.1243   10.9806   28.3176 H   0  0  0  0  0  0  0  0  0  0  0  0
  -20.8906   12.3926   27.3053 C   0  0  0  0  0  0  0  0  0  0  0  0
  -20.5518   11.4321   26.4424 O   0  0  0  0  0  0  0  0  0  0  0  0
  -19.6873   11.9089   25.5372 N   0  0  0  0  0  0  0  0  0  0  0  0
  -19.4831   13.1485   25.8222 C   0  0  0  0  0  0  0  0  0  0  0  0
  -18.5742   13.9820   25.0087 C   0  0  0  0  0  0  0  0  0  0  0  0
  -18.3657   14.9362   25.5040 H   0  0  0  0  0  0  0  0  0  0  0  0
  -19.0238   14.1990   24.0339 H   0  0  0  0  0  0  0  0  0  0  0  0
  -17.6185   13.4737   24.8439 H   0  0  0  0  0  0  0  0  0  0  0  0
  -20.2243   13.4990   26.9414 C   0  0  0  0  0  0  0  0  0  0  0  0
  -20.2600   14.4440   27.4185 H   0  0  0  0  0  0  0  0  0  0  0  0
  -23.1794   13.8011   29.3281 N   0  0  0  0  0  0  0  0  0  0  0  0
  -24.2025   14.5976   29.3317 C   0  0  0  0  0  0  0  0  0  0  0  0
  -24.3543   15.5904   30.4491 C   0  0  0  0  0  0  0  0  0  0  0  0
  -23.4545   16.2113   30.5062 H   0  0  0  0  0  0  0  0  0  0  0  0
  -24.4754   15.0521   31.3944 H   0  0  0  0  0  0  0  0  0  0  0  0
  -25.2212   16.2380   30.2967 H   0  0  0  0  0  0  0  0  0  0  0  0
  -25.1773   14.5412   28.2935 C   0  0  0  0  0  0  0  0  0  0  0  0
  -26.0005   15.2077   28.3225 H   0  0  0  0  0  0  0  0  0  0  0  0
  -25.0461   13.6407   27.2773 C   0  0  0  0  0  0  0  0  0  0  0  0
  -25.7521   13.5737   26.4922 H   0  0  0  0  0  0  0  0  0  0  0  0
  1  2  2  0
  2  3  1  0
  2 25  1  0
  3  4  1  0
  3 17  1  0
  4  5  1  0
  4  6  1  0
  4  7  1  0
  7  8  1  0
  7 15  2  0
  8  9  1  0
  9 10  2  0
 10 11  1  0
 10 15  1  0
 11 12  1  0
 11 13  1  0
 11 14  1  0
 15 16  1  0
 17 18  2  0
 18 19  1  0
 18 23  1  0
 19 20  1  0
 19 21  1  0
 19 22  1  0
 23 24  1  0
 23 25  2  0
 25 26  1  0
M  END
$$$$
