
     RDKit          3D

 19 19  0  0  0  0  0  0  0  0999 V2000
  -18.5334   15.9063   25.3738 O   0  0  0  0  0  0  0  0  0  0  0  0
  -17.8142   15.5694   26.3034 C   0  0  0  0  0  0  0  0  0  0  0  0
  -18.0660   14.4953   27.0380 N   0  0  0  0  0  0  0  0  0  0  0  0
  -17.4602   14.2523   27.8029 H   0  0  0  0  0  0  0  0  0  0  0  0
  -19.2067   13.6407   26.7848 C   0  0  0  0  0  0  0  0  0  0  0  0
  -19.4980   13.1619   27.7260 H   0  0  0  0  0  0  0  0  0  0  0  0
  -20.0446   14.2610   26.4487 H   0  0  0  0  0  0  0  0  0  0  0  0
  -18.8352   12.6310   25.7592 C   0  0  0  0  0  0  0  0  0  0  0  0
  -18.6536   12.8394   24.4338 C   0  0  0  0  0  0  0  0  0  0  0  0
  -18.7279   13.7144   23.8407 H   0  0  0  0  0  0  0  0  0  0  0  0
  -18.3258   11.6366   23.9151 N   0  0  0  0  0  0  0  0  0  0  0  0
  -18.1172   11.4518   22.9161 H   0  0  0  0  0  0  0  0  0  0  0  0
  -18.2998   10.6649   24.8642 N   0  0  0  0  0  0  0  0  0  0  0  0
  -18.6069   11.2757   25.9754 C   0  0  0  0  0  0  0  0  0  0  0  0
  -18.6723   10.7797   26.9114 H   0  0  0  0  0  0  0  0  0  0  0  0
  -16.6033   16.3639   26.7070 C   0  0  0  0  0  0  0  0  0  0  0  0
  -15.8663   15.7329   27.2116 H   0  0  0  0  0  0  0  0  0  0  0  0
  -16.9106   17.1663   27.3819 H   0  0  0  0  0  0  0  0  0  0  0  0
  -16.1382   16.7940   25.8156 H   0  0  0  0  0  0  0  0  0  0  0  0
  1  2  2  0
  2  3  1  0
  2 16  1  0
  3  4  1  0
  3  5  1  0
  5  6  1  0
  5  7  1  0
  5  8  1  0
  8  9  2  0
  8 14  1  0
  9 10  1  0
  9 11  1  0
 11 12  1  0
 11 13  1  0
 13 14  2  0
 14 15  1  0
 16 17  1  0
 16 18  1  0
 16 19  1  0
M  END
$$$$
