
     RDKit          3D

 29 30  0  0  0  0  0  0  0  0999 V2000
  -24.3404   11.7789   28.5166 F   0  0  0  0  0  0  0  0  0  0  0  0
  -24.0119   11.8993   29.8119 C   0  0  0  0  0  0  0  0  0  0  0  0
  -24.8634   12.5913   30.6762 C   0  0  0  0  0  0  0  0  0  0  0  0
  -26.1553   13.1966   30.1879 C   0  0  0  0  0  0  0  0  0  0  0  0
  -26.8967   13.2092   30.9971 H   0  0  0  0  0  0  0  0  0  0  0  0
  -26.5776   12.5253   29.4278 H   0  0  0  0  0  0  0  0  0  0  0  0
  -26.0001   14.6016   29.6155 C   0  0  0  0  0  0  0  0  0  0  0  0
  -25.4144   15.6237   30.5369 C   0  0  0  0  0  0  0  0  0  0  0  0
  -26.0466   16.5520   30.9990 O   0  0  0  0  0  0  0  0  0  0  0  0
  -24.0995   15.4910   30.8396 N   0  0  0  0  0  0  0  0  0  0  0  0
  -23.5908   14.7377   30.3986 H   0  0  0  0  0  0  0  0  0  0  0  0
  -23.4033   16.3784   31.7364 C   0  0  0  0  0  0  0  0  0  0  0  0
  -23.3770   17.3796   31.2985 H   0  0  0  0  0  0  0  0  0  0  0  0
  -23.9272   16.4129   32.6948 H   0  0  0  0  0  0  0  0  0  0  0  0
  -22.3861   16.0052   31.8791 H   0  0  0  0  0  0  0  0  0  0  0  0
  -26.9364   15.1149   28.5174 C   0  0  0  0  0  0  0  0  0  0  0  0
  -27.1552   16.1784   28.4850 H   0  0  0  0  0  0  0  0  0  0  0  0
  -27.7581   14.5015   28.1685 H   0  0  0  0  0  0  0  0  0  0  0  0
  -25.5567   14.6817   28.1529 C   0  0  0  0  0  0  0  0  0  0  0  0
  -24.8402   15.4463   27.8729 H   0  0  0  0  0  0  0  0  0  0  0  0
  -25.4517   13.7641   27.5851 H   0  0  0  0  0  0  0  0  0  0  0  0
  -24.4834   12.7069   32.0138 C   0  0  0  0  0  0  0  0  0  0  0  0
  -25.1005   13.2277   32.7000 H   0  0  0  0  0  0  0  0  0  0  0  0
  -23.2876   12.1424   32.4593 C   0  0  0  0  0  0  0  0  0  0  0  0
  -23.0087   12.2367   33.4794 H   0  0  0  0  0  0  0  0  0  0  0  0
  -22.4555   11.4546   31.5767 C   0  0  0  0  0  0  0  0  0  0  0  0
  -21.5482   11.0286   31.9239 H   0  0  0  0  0  0  0  0  0  0  0  0
  -22.8185   11.3308   30.2396 C   0  0  0  0  0  0  0  0  0  0  0  0
  -22.1998   10.8131   29.5537 H   0  0  0  0  0  0  0  0  0  0  0  0
  1  2  1  0
  2  3  1  0
  2 28  2  0
  3  4  1  0
  3 22  2  0
  4  5  1  0
  4  6  1  0
  4  7  1  0
  7  8  1  0
  7 16  1  0
  7 19  1  0
  8  9  2  0
  8 10  1  0
 10 11  1  0
 10 12  1  0
 12 13  1  0
 12 14  1  0
 12 15  1  0
 16 17  1  0
 16 18  1  0
 16 19  1  0
 19 20  1  0
 19 21  1  0
 22 23  1  0
 22 24  1  0
 24 25  1  0
 24 26  2  0
 26 27  1  0
 26 28  1  0
 28 29  1  0
M  END
$$$$
