
     RDKit          3D

 16 16  0  0  0  0  0  0  0  0999 V2000
  -17.3757   17.1862   26.0199 O   0  0  0  0  0  0  0  0  0  0  0  0
  -16.7877   15.9738   26.4918 C   0  0  0  0  0  0  0  0  0  0  0  0
  -15.8192   15.8191   26.0005 H   0  0  0  0  0  0  0  0  0  0  0  0
  -16.6297   16.0287   27.5749 H   0  0  0  0  0  0  0  0  0  0  0  0
  -17.7145   14.8580   26.1478 C   0  0  0  0  0  0  0  0  0  0  0  0
  -18.0663   14.4751   24.5156 S   0  0  0  0  0  0  0  0  0  0  0  0
  -19.0835   13.2575   25.1288 C   0  0  0  0  0  0  0  0  0  0  0  0
  -19.7669   12.4595   24.2910 N   0  0  0  0  0  0  0  0  0  0  0  0
  -19.7014   12.5492   23.2848 H   0  0  0  0  0  0  0  0  0  0  0  0
  -20.3730   11.7349   24.6565 H   0  0  0  0  0  0  0  0  0  0  0  0
  -19.1454   13.1694   26.4205 N   0  0  0  0  0  0  0  0  0  0  0  0
  -18.3360   14.1157   27.0140 N   0  0  0  0  0  0  0  0  0  0  0  0
  -18.5555   17.5108   26.7416 C   0  0  0  0  0  0  0  0  0  0  0  0
  -18.9601   18.4435   26.3384 H   0  0  0  0  0  0  0  0  0  0  0  0
  -18.3282   17.6584   27.8015 H   0  0  0  0  0  0  0  0  0  0  0  0
  -19.3065   16.7241   26.6220 H   0  0  0  0  0  0  0  0  0  0  0  0
  1  2  1  0
  1 13  1  0
  2  3  1  0
  2  4  1  0
  2  5  1  0
  5  6  1  0
  5 12  2  0
  6  7  1  0
  7  8  1  0
  7 11  2  0
  8  9  1  0
  8 10  1  0
 11 12  1  0
 13 14  1  0
 13 15  1  0
 13 16  1  0
M  END
$$$$
