
     RDKit          3D

 24 24  0  0  0  0  0  0  0  0999 V2000
  -20.0784   12.0751   25.2838 O   0  0  0  0  0  0  0  0  0  0  0  0
  -21.0128   11.8007   25.2914 H   0  0  0  0  0  0  0  0  0  0  0  0
  -19.8153   12.6962   26.5364 C   0  0  0  0  0  0  0  0  0  0  0  0
  -20.4447   13.5871   26.6232 H   0  0  0  0  0  0  0  0  0  0  0  0
  -20.0979   11.9897   27.3229 H   0  0  0  0  0  0  0  0  0  0  0  0
  -18.3279   13.0464   26.6738 C   0  0  0  0  0  0  0  0  0  0  0  0
  -17.7028   12.1513   26.5730 H   0  0  0  0  0  0  0  0  0  0  0  0
  -18.1517   13.4085   27.6946 H   0  0  0  0  0  0  0  0  0  0  0  0
  -17.9183   14.1053   25.7249 N   0  0  0  0  0  0  0  0  0  0  0  0
  -17.8985   13.7080   24.3174 C   0  0  0  0  0  0  0  0  0  0  0  0
  -18.0474   12.6284   24.1962 H   0  0  0  0  0  0  0  0  0  0  0  0
  -16.9327   13.9483   23.8596 H   0  0  0  0  0  0  0  0  0  0  0  0
  -18.6995   14.2113   23.7652 H   0  0  0  0  0  0  0  0  0  0  0  0
  -17.5783   15.3517   26.1915 C   0  0  0  0  0  0  0  0  0  0  0  0
  -16.3549   15.7704   25.8353 N   0  0  0  0  0  0  0  0  0  0  0  0
  -15.8032   15.1146   25.2712 H   0  0  0  0  0  0  0  0  0  0  0  0
  -15.8508   16.9902   26.1892 C   0  0  0  0  0  0  0  0  0  0  0  0
  -14.8698   17.2027   25.8414 H   0  0  0  0  0  0  0  0  0  0  0  0
  -16.6190   17.8413   26.9486 C   0  0  0  0  0  0  0  0  0  0  0  0
  -16.2487   18.7934   27.2343 H   0  0  0  0  0  0  0  0  0  0  0  0
  -17.9052   17.4456   27.3564 C   0  0  0  0  0  0  0  0  0  0  0  0
  -18.4993   18.0962   27.9522 H   0  0  0  0  0  0  0  0  0  0  0  0
  -18.3825   16.2109   26.9858 C   0  0  0  0  0  0  0  0  0  0  0  0
  -19.3408   15.8952   27.3017 H   0  0  0  0  0  0  0  0  0  0  0  0
  1  2  1  0
  1  3  1  0
  3  4  1  0
  3  5  1  0
  3  6  1  0
  6  7  1  0
  6  8  1  0
  6  9  1  0
  9 10  1  0
  9 14  1  0
 10 11  1  0
 10 12  1  0
 10 13  1  0
 14 15  1  0
 14 23  2  0
 15 16  1  0
 15 17  2  0
 17 18  1  0
 17 19  1  0
 19 20  1  0
 19 21  2  0
 21 22  1  0
 21 23  1  0
 23 24  1  0
M  END
$$$$
