
     RDKit          3D

 31 32  0  0  0  0  0  0  0  0999 V2000
  -21.5306   11.0619   26.9948 O   0  0  0  0  0  0  0  0  0  0  0  0
  -21.3349   12.2697   26.9594 C   0  0  0  0  0  0  0  0  0  0  0  0
  -22.2684   13.0614   27.5588 N   0  0  0  0  0  0  0  0  0  0  0  0
  -22.1124   14.0726   27.6454 H   0  0  0  0  0  0  0  0  0  0  0  0
  -23.4873   12.5204   28.1258 C   0  0  0  0  0  0  0  0  0  0  0  0
  -23.9926   11.9228   27.3583 H   0  0  0  0  0  0  0  0  0  0  0  0
  -24.1484   13.3518   28.3955 H   0  0  0  0  0  0  0  0  0  0  0  0
  -23.1472   11.6898   29.3114 C   0  0  0  0  0  0  0  0  0  0  0  0
  -22.9654   12.1164   30.5834 C   0  0  0  0  0  0  0  0  0  0  0  0
  -23.0239   13.0787   31.0187 H   0  0  0  0  0  0  0  0  0  0  0  0
  -22.6641   11.0135   31.3046 N   0  0  0  0  0  0  0  0  0  0  0  0
  -22.3768   10.9232   32.7206 C   0  0  0  0  0  0  0  0  0  0  0  0
  -21.3622   11.3047   32.8804 H   0  0  0  0  0  0  0  0  0  0  0  0
  -23.0717   11.5896   33.2423 H   0  0  0  0  0  0  0  0  0  0  0  0
  -22.4954    9.5026   33.2421 C   0  0  0  0  0  0  0  0  0  0  0  0
  -21.8048    8.8324   32.7187 H   0  0  0  0  0  0  0  0  0  0  0  0
  -23.5087    9.1126   33.1010 H   0  0  0  0  0  0  0  0  0  0  0  0
  -22.2621    9.4691   34.3106 H   0  0  0  0  0  0  0  0  0  0  0  0
  -22.6509    9.8981   30.5318 N   0  0  0  0  0  0  0  0  0  0  0  0
  -22.9406   10.3159   29.3301 C   0  0  0  0  0  0  0  0  0  0  0  0
  -23.0094    9.6684   28.4927 H   0  0  0  0  0  0  0  0  0  0  0  0
  -20.1338   12.8709   26.3485 C   0  0  0  0  0  0  0  0  0  0  0  0
  -19.6153   14.0376   26.9245 C   0  0  0  0  0  0  0  0  0  0  0  0
  -20.0921   14.4611   27.7737 H   0  0  0  0  0  0  0  0  0  0  0  0
  -18.5337   14.6536   26.4433 N   0  0  0  0  0  0  0  0  0  0  0  0
  -17.9064   14.1530   25.3809 C   0  0  0  0  0  0  0  0  0  0  0  0
  -17.0493   14.6655   25.0219 H   0  0  0  0  0  0  0  0  0  0  0  0
  -18.3492   12.9923   24.7523 C   0  0  0  0  0  0  0  0  0  0  0  0
  -17.8265   12.6149   23.9127 H   0  0  0  0  0  0  0  0  0  0  0  0
  -19.4739   12.3356   25.2351 C   0  0  0  0  0  0  0  0  0  0  0  0
  -19.8105   11.4466   24.7688 H   0  0  0  0  0  0  0  0  0  0  0  0
  1  2  2  0
  2  3  1  0
  2 22  1  0
  3  4  1  0
  3  5  1  0
  5  6  1  0
  5  7  1  0
  5  8  1  0
  8  9  2  0
  8 20  1  0
  9 10  1  0
  9 11  1  0
 11 12  1  0
 11 19  1  0
 12 13  1  0
 12 14  1  0
 12 15  1  0
 15 16  1  0
 15 17  1  0
 15 18  1  0
 19 20  2  0
 20 21  1  0
 22 23  1  0
 22 30  2  0
 23 24  1  0
 23 25  2  0
 25 26  1  0
 26 27  1  0
 26 28  2  0
 28 29  1  0
 28 30  1  0
 30 31  1  0
M  END
$$$$
