
     RDKit          3D

 23 23  0  0  0  0  0  0  0  0999 V2000
  -25.6646   13.3015   28.9764 S   0  0  0  0  0  0  0  0  0  0  0  0
  -24.9693   12.5869   30.0349 O   0  0  0  0  0  0  0  0  0  0  0  0
  -27.1079   13.2238   28.8555 O   0  0  0  0  0  0  0  0  0  0  0  0
  -24.9508   12.7994   27.4323 C   0  0  0  0  0  0  0  0  0  0  0  0
  -23.8710   12.9567   27.4708 H   0  0  0  0  0  0  0  0  0  0  0  0
  -25.3987   13.3793   26.6230 H   0  0  0  0  0  0  0  0  0  0  0  0
  -25.1656   11.7388   27.2887 H   0  0  0  0  0  0  0  0  0  0  0  0
  -25.2281   15.0141   29.0866 C   0  0  0  0  0  0  0  0  0  0  0  0
  -24.2930   15.5039   30.0149 C   0  0  0  0  0  0  0  0  0  0  0  0
  -23.6824   14.6254   30.9064 N   0  0  0  0  0  0  0  0  0  0  0  0
  -23.4971   13.6705   30.5667 H   0  0  0  0  0  0  0  0  0  0  0  0
  -23.3180   14.9303   32.2689 C   0  0  0  0  0  0  0  0  0  0  0  0
  -22.6252   15.7774   32.3128 H   0  0  0  0  0  0  0  0  0  0  0  0
  -22.8153   14.0660   32.7143 H   0  0  0  0  0  0  0  0  0  0  0  0
  -24.2022   15.1489   32.8753 H   0  0  0  0  0  0  0  0  0  0  0  0
  -23.9565   16.8641   30.0237 C   0  0  0  0  0  0  0  0  0  0  0  0
  -23.2327   17.2354   30.6993 H   0  0  0  0  0  0  0  0  0  0  0  0
  -24.5743   17.7393   29.1404 C   0  0  0  0  0  0  0  0  0  0  0  0
  -24.3253   18.7695   29.1537 H   0  0  0  0  0  0  0  0  0  0  0  0
  -25.5230   17.2682   28.2388 C   0  0  0  0  0  0  0  0  0  0  0  0
  -25.9994   17.9402   27.5701 H   0  0  0  0  0  0  0  0  0  0  0  0
  -25.8430   15.9141   28.2125 C   0  0  0  0  0  0  0  0  0  0  0  0
  -26.5634   15.5607   27.5191 H   0  0  0  0  0  0  0  0  0  0  0  0
  1  2  2  0
  1  3  2  0
  1  4  1  0
  1  8  1  0
  4  5  1  0
  4  6  1  0
  4  7  1  0
  8  9  1  0
  8 22  2  0
  9 10  1  0
  9 16  2  0
 10 11  1  0
 10 12  1  0
 12 13  1  0
 12 14  1  0
 12 15  1  0
 16 17  1  0
 16 18  1  0
 18 19  1  0
 18 20  2  0
 20 21  1  0
 20 22  1  0
 22 23  1  0
M  END
$$$$
