
     RDKit          3D

 27 28  0  0  0  0  0  0  0  0999 V2000
  -19.2195   15.7248   27.4805 O   0  0  0  0  0  0  0  0  0  0  0  0
  -18.5786   16.9926   27.5230 C   0  0  0  0  0  0  0  0  0  0  0  0
  -18.8757   17.4860   28.4539 H   0  0  0  0  0  0  0  0  0  0  0  0
  -18.9045   17.6283   26.6924 H   0  0  0  0  0  0  0  0  0  0  0  0
  -17.4891   16.8850   27.5380 H   0  0  0  0  0  0  0  0  0  0  0  0
  -19.0110   14.9196   26.3805 C   0  0  0  0  0  0  0  0  0  0  0  0
  -19.7258   13.7134   26.3605 C   0  0  0  0  0  0  0  0  0  0  0  0
  -19.5217   12.8517   25.2723 C   0  0  0  0  0  0  0  0  0  0  0  0
  -20.1017   11.5756   25.0771 N   0  0  0  0  0  0  0  0  0  0  0  0
  -19.9100   11.1408   24.1666 H   0  0  0  0  0  0  0  0  0  0  0  0
  -20.8688   10.7599   25.8476 C   0  0  0  0  0  0  0  0  0  0  0  0
  -21.1335    9.7113   25.3071 O   0  0  0  0  0  0  0  0  0  0  0  0
  -21.2638   11.0874   27.2454 C   0  0  0  0  0  0  0  0  0  0  0  0
  -22.0535   10.3823   27.5327 H   0  0  0  0  0  0  0  0  0  0  0  0
  -20.4114   10.9161   27.9121 H   0  0  0  0  0  0  0  0  0  0  0  0
  -21.8051   12.4906   27.3371 C   0  0  0  0  0  0  0  0  0  0  0  0
  -22.4166   12.7487   26.4633 H   0  0  0  0  0  0  0  0  0  0  0  0
  -22.4584   12.5555   28.2151 H   0  0  0  0  0  0  0  0  0  0  0  0
  -20.6750   13.4860   27.5178 C   0  0  0  0  0  0  0  0  0  0  0  0
  -20.0795   13.2136   28.3990 H   0  0  0  0  0  0  0  0  0  0  0  0
  -21.1740   14.4353   27.7529 H   0  0  0  0  0  0  0  0  0  0  0  0
  -18.6368   13.1868   24.2447 C   0  0  0  0  0  0  0  0  0  0  0  0
  -18.4945   12.5244   23.4300 H   0  0  0  0  0  0  0  0  0  0  0  0
  -17.9434   14.3891   24.2844 C   0  0  0  0  0  0  0  0  0  0  0  0
  -17.2748   14.6424   23.5023 H   0  0  0  0  0  0  0  0  0  0  0  0
  -18.1285   15.2611   25.3512 C   0  0  0  0  0  0  0  0  0  0  0  0
  -17.5971   16.1752   25.3741 H   0  0  0  0  0  0  0  0  0  0  0  0
  1  2  1  0
  1  6  1  0
  2  3  1  0
  2  4  1  0
  2  5  1  0
  6  7  1  0
  6 26  2  0
  7  8  2  0
  7 19  1  0
  8  9  1  0
  8 22  1  0
  9 10  1  0
  9 11  1  0
 11 12  2  0
 11 13  1  0
 13 14  1  0
 13 15  1  0
 13 16  1  0
 16 17  1  0
 16 18  1  0
 16 19  1  0
 19 20  1  0
 19 21  1  0
 22 23  1  0
 22 24  2  0
 24 25  1  0
 24 26  1  0
 26 27  1  0
M  END
$$$$
