
     RDKit          3D

 23 24  0  0  0  0  0  0  0  0999 V2000
  -20.6917   14.4718   28.0014 O   0  0  0  0  0  0  0  0  0  0  0  0
  -20.7693   13.5367   27.2107 C   0  0  0  0  0  0  0  0  0  0  0  0
  -19.8076   13.4741   26.2155 N   0  0  0  0  0  0  0  0  0  0  0  0
  -19.7308   12.5387   25.0986 C   0  0  0  0  0  0  0  0  0  0  0  0
  -19.7506   11.5026   25.4385 H   0  0  0  0  0  0  0  0  0  0  0  0
  -20.5894   12.7224   24.4443 H   0  0  0  0  0  0  0  0  0  0  0  0
  -18.4116   12.8603   24.4061 C   0  0  0  0  0  0  0  0  0  0  0  0
  -17.6036   12.2642   24.8482 H   0  0  0  0  0  0  0  0  0  0  0  0
  -18.4388   12.6555   23.3334 H   0  0  0  0  0  0  0  0  0  0  0  0
  -18.1973   14.3310   24.7290 C   0  0  0  0  0  0  0  0  0  0  0  0
  -18.8035   14.9498   24.0566 H   0  0  0  0  0  0  0  0  0  0  0  0
  -17.1532   14.6424   24.6372 H   0  0  0  0  0  0  0  0  0  0  0  0
  -18.7200   14.4407   26.1517 C   0  0  0  0  0  0  0  0  0  0  0  0
  -19.0624   15.4503   26.3957 H   0  0  0  0  0  0  0  0  0  0  0  0
  -17.9614   14.1367   26.8825 H   0  0  0  0  0  0  0  0  0  0  0  0
  -21.8475   12.5678   27.2591 C   0  0  0  0  0  0  0  0  0  0  0  0
  -23.1452   12.8894   27.5261 C   0  0  0  0  0  0  0  0  0  0  0  0
  -23.6081   13.8229   27.7175 H   0  0  0  0  0  0  0  0  0  0  0  0
  -23.8239   11.7310   27.5170 N   0  0  0  0  0  0  0  0  0  0  0  0
  -24.8435   11.6375   27.6892 H   0  0  0  0  0  0  0  0  0  0  0  0
  -23.0159   10.6650   27.2610 N   0  0  0  0  0  0  0  0  0  0  0  0
  -21.8273   11.1779   27.1168 C   0  0  0  0  0  0  0  0  0  0  0  0
  -20.9644   10.5915   26.9285 H   0  0  0  0  0  0  0  0  0  0  0  0
  1  2  2  0
  2  3  1  0
  2 16  1  0
  3  4  1  0
  3 13  1  0
  4  5  1  0
  4  6  1  0
  4  7  1  0
  7  8  1  0
  7  9  1  0
  7 10  1  0
 10 11  1  0
 10 12  1  0
 10 13  1  0
 13 14  1  0
 13 15  1  0
 16 17  2  0
 16 22  1  0
 17 18  1  0
 17 19  1  0
 19 20  1  0
 19 21  1  0
 21 22  2  0
 22 23  1  0
M  END
$$$$
