
     RDKit          3D

 27 27  0  0  0  0  0  0  0  0999 V2000
  -19.1841   12.3213   26.1121 S   0  0  0  0  0  0  0  0  0  0  0  0
  -18.5411   13.6164   26.1520 O   0  0  0  0  0  0  0  0  0  0  0  0
  -18.4658   11.1005   26.4056 O   0  0  0  0  0  0  0  0  0  0  0  0
  -19.8470   12.1463   24.5715 N   0  0  0  0  0  0  0  0  0  0  0  0
  -20.8482   11.9400   24.6019 H   0  0  0  0  0  0  0  0  0  0  0  0
  -19.3097   11.4976   23.9909 H   0  0  0  0  0  0  0  0  0  0  0  0
  -20.6277   12.3780   27.1123 C   0  0  0  0  0  0  0  0  0  0  0  0
  -21.4788   11.2722   27.1980 C   0  0  0  0  0  0  0  0  0  0  0  0
  -21.2315   10.3795   26.6772 H   0  0  0  0  0  0  0  0  0  0  0  0
  -22.6474   11.3334   27.9481 C   0  0  0  0  0  0  0  0  0  0  0  0
  -23.2844   10.4862   27.9987 H   0  0  0  0  0  0  0  0  0  0  0  0
  -22.9886   12.5038   28.6230 C   0  0  0  0  0  0  0  0  0  0  0  0
  -24.2874   12.5934   29.3760 C   0  0  0  0  0  0  0  0  0  0  0  0
  -25.1297   12.2979   28.7383 H   0  0  0  0  0  0  0  0  0  0  0  0
  -24.4802   13.6226   29.7029 H   0  0  0  0  0  0  0  0  0  0  0  0
  -24.2587   11.7350   30.5406 N   0  0  0  0  0  0  0  0  0  0  0  0
  -23.4940   11.0873   30.6223 H   0  0  0  0  0  0  0  0  0  0  0  0
  -25.1934   11.7804   31.4799 C   0  0  0  0  0  0  0  0  0  0  0  0
  -26.1379   12.5534   31.4193 O   0  0  0  0  0  0  0  0  0  0  0  0
  -24.9980   10.8259   32.6230 C   0  0  0  0  0  0  0  0  0  0  0  0
  -24.8510    9.8107   32.2433 H   0  0  0  0  0  0  0  0  0  0  0  0
  -24.1223   11.1260   33.2057 H   0  0  0  0  0  0  0  0  0  0  0  0
  -25.8807   10.8372   33.2681 H   0  0  0  0  0  0  0  0  0  0  0  0
  -22.1513   13.6131   28.5340 C   0  0  0  0  0  0  0  0  0  0  0  0
  -22.4093   14.5136   29.0328 H   0  0  0  0  0  0  0  0  0  0  0  0
  -20.9823   13.5514   27.7823 C   0  0  0  0  0  0  0  0  0  0  0  0
  -20.3560   14.4063   27.7097 H   0  0  0  0  0  0  0  0  0  0  0  0
  1  2  2  0
  1  3  2  0
  1  4  1  0
  1  7  1  0
  4  5  1  0
  4  6  1  0
  7  8  1  0
  7 26  2  0
  8  9  1  0
  8 10  2  0
 10 11  1  0
 10 12  1  0
 12 13  1  0
 12 24  2  0
 13 14  1  0
 13 15  1  0
 13 16  1  0
 16 17  1  0
 16 18  1  0
 18 19  2  0
 18 20  1  0
 20 21  1  0
 20 22  1  0
 20 23  1  0
 24 25  1  0
 24 26  1  0
 26 27  1  0
M  END
$$$$
