
     RDKit          3D

 32 33  0  0  0  0  0  0  0  0999 V2000
  -16.3688   15.8317   27.9200 O   0  0  0  0  0  0  0  0  0  0  0  0
  -16.0943   16.3283   26.8453 C   0  0  0  0  0  0  0  0  0  0  0  0
  -16.7190   15.9131   25.7035 N   0  0  0  0  0  0  0  0  0  0  0  0
  -16.4053   16.3981   24.8570 H   0  0  0  0  0  0  0  0  0  0  0  0
  -17.6944   14.9378   25.5620 C   0  0  0  0  0  0  0  0  0  0  0  0
  -18.2949   14.2247   26.5370 C   0  0  0  0  0  0  0  0  0  0  0  0
  -18.1828   14.2351   27.5892 H   0  0  0  0  0  0  0  0  0  0  0  0
  -19.1609   13.4090   25.8893 N   0  0  0  0  0  0  0  0  0  0  0  0
  -20.0538   12.4276   26.4683 C   0  0  0  0  0  0  0  0  0  0  0  0
  -19.9368   12.4754   27.5563 H   0  0  0  0  0  0  0  0  0  0  0  0
  -21.0800   12.7248   26.2260 H   0  0  0  0  0  0  0  0  0  0  0  0
  -19.7769   11.0250   25.9567 C   0  0  0  0  0  0  0  0  0  0  0  0
  -18.7584   10.7076   26.2036 H   0  0  0  0  0  0  0  0  0  0  0  0
  -19.8875   10.9731   24.8680 H   0  0  0  0  0  0  0  0  0  0  0  0
  -20.4750   10.3120   26.4053 H   0  0  0  0  0  0  0  0  0  0  0  0
  -19.1277   13.5899   24.5362 N   0  0  0  0  0  0  0  0  0  0  0  0
  -18.2297   14.5221   24.3462 C   0  0  0  0  0  0  0  0  0  0  0  0
  -17.9653   14.8936   23.3903 H   0  0  0  0  0  0  0  0  0  0  0  0
  -15.0415   17.4160   26.6936 C   0  0  0  0  0  0  0  0  0  0  0  0
  -14.1399   16.9325   26.2968 H   0  0  0  0  0  0  0  0  0  0  0  0
  -15.4842   18.5353   25.7419 C   0  0  0  0  0  0  0  0  0  0  0  0
  -15.0341   18.4194   24.7502 H   0  0  0  0  0  0  0  0  0  0  0  0
  -16.5702   18.5518   25.6003 H   0  0  0  0  0  0  0  0  0  0  0  0
  -15.0240   19.8261   26.4044 C   0  0  0  0  0  0  0  0  0  0  0  0
  -13.9727   20.0209   26.1616 H   0  0  0  0  0  0  0  0  0  0  0  0
  -15.6138   20.6901   26.0859 H   0  0  0  0  0  0  0  0  0  0  0  0
  -15.1738   19.5371   27.8875 C   0  0  0  0  0  0  0  0  0  0  0  0
  -16.2255   19.6126   28.1848 H   0  0  0  0  0  0  0  0  0  0  0  0
  -14.5957   20.2292   28.5060 H   0  0  0  0  0  0  0  0  0  0  0  0
  -14.6854   18.1001   28.0221 C   0  0  0  0  0  0  0  0  0  0  0  0
  -15.1093   17.6089   28.9035 H   0  0  0  0  0  0  0  0  0  0  0  0
  -13.5944   18.1009   28.1445 H   0  0  0  0  0  0  0  0  0  0  0  0
  1  2  2  0
  2  3  1  0
  2 19  1  0
  3  4  1  0
  3  5  1  0
  5  6  2  0
  5 17  1  0
  6  7  1  0
  6  8  1  0
  8  9  1  0
  8 16  1  0
  9 10  1  0
  9 11  1  0
  9 12  1  0
 12 13  1  0
 12 14  1  0
 12 15  1  0
 16 17  2  0
 17 18  1  0
 19 20  1  0
 19 21  1  0
 19 30  1  0
 21 22  1  0
 21 23  1  0
 21 24  1  0
 24 25  1  0
 24 26  1  0
 24 27  1  0
 27 28  1  0
 27 29  1  0
 27 30  1  0
 30 31  1  0
 30 32  1  0
M  END
$$$$
