
     RDKit          3D

 25 27  0  0  0  0  0  0  0  0999 V2000
  -24.9735   17.4180   29.9249 O   0  0  0  0  0  0  0  0  0  0  0  0
  -24.4086   16.3354   29.7804 C   0  0  0  0  0  0  0  0  0  0  0  0
  -23.3700   16.0270   30.6070 N   0  0  0  0  0  0  0  0  0  0  0  0
  -22.9405   15.1001   30.4519 H   0  0  0  0  0  0  0  0  0  0  0  0
  -22.8708   16.8757   31.6367 C   0  0  0  0  0  0  0  0  0  0  0  0
  -22.4039   17.7794   31.2520 H   0  0  0  0  0  0  0  0  0  0  0  0
  -22.2702   16.2933   32.8875 C   0  0  0  0  0  0  0  0  0  0  0  0
  -22.2627   15.2172   33.0110 H   0  0  0  0  0  0  0  0  0  0  0  0
  -21.4113   16.7969   33.3153 H   0  0  0  0  0  0  0  0  0  0  0  0
  -23.5953   16.9940   32.9489 C   0  0  0  0  0  0  0  0  0  0  0  0
  -23.6370   17.9719   33.4128 H   0  0  0  0  0  0  0  0  0  0  0  0
  -24.4831   16.3907   33.1006 H   0  0  0  0  0  0  0  0  0  0  0  0
  -24.7754   15.3498   28.7903 C   0  0  0  0  0  0  0  0  0  0  0  0
  -24.1766   14.1293   28.6018 C   0  0  0  0  0  0  0  0  0  0  0  0
  -24.8710   13.5638   27.5586 N   0  0  0  0  0  0  0  0  0  0  0  0
  -25.8681   14.3607   27.0907 N   0  0  0  0  0  0  0  0  0  0  0  0
  -25.7956   15.4319   27.8437 C   0  0  0  0  0  0  0  0  0  0  0  0
  -26.4482   16.2623   27.7344 H   0  0  0  0  0  0  0  0  0  0  0  0
  -24.5443   12.2930   27.0688 C   0  0  0  0  0  0  0  0  0  0  0  0
  -25.1349   11.9420   26.2630 H   0  0  0  0  0  0  0  0  0  0  0  0
  -23.5020   11.6575   27.6870 C   0  0  0  0  0  0  0  0  0  0  0  0
  -23.1932   10.6946   27.3735 H   0  0  0  0  0  0  0  0  0  0  0  0
  -22.8023   12.2804   28.7727 C   0  0  0  0  0  0  0  0  0  0  0  0
  -21.9979   11.7686   29.2355 H   0  0  0  0  0  0  0  0  0  0  0  0
  -23.1119   13.4650   29.2253 N   0  0  0  0  0  0  0  0  0  0  0  0
  1  2  2  0
  2  3  1  0
  2 13  1  0
  3  4  1  0
  3  5  1  0
  5  6  1  0
  5  7  1  0
  5 10  1  0
  7  8  1  0
  7  9  1  0
  7 10  1  0
 10 11  1  0
 10 12  1  0
 13 14  2  0
 13 17  1  0
 14 15  1  0
 14 25  1  0
 15 16  1  0
 15 19  1  0
 16 17  2  0
 17 18  1  0
 19 20  1  0
 19 21  2  0
 21 22  1  0
 21 23  1  0
 23 24  1  0
 23 25  2  0
M  END
$$$$
