
     RDKit          3D

 17 18  0  0  0  0  0  0  0  0999 V2000
  -19.4288   10.0654   25.0901 Br  0  0  0  0  0  0  0  0  0  0  0  0
  -19.3044   11.8692   25.6435 C   0  0  0  0  0  0  0  0  0  0  0  0
  -18.2295   12.6511   25.2271 C   0  0  0  0  0  0  0  0  0  0  0  0
  -17.4718   12.2556   24.6030 H   0  0  0  0  0  0  0  0  0  0  0  0
  -18.1820   13.9691   25.6612 C   0  0  0  0  0  0  0  0  0  0  0  0
  -17.2158   14.9224   25.3762 N   0  0  0  0  0  0  0  0  0  0  0  0
  -16.3760   14.8054   24.7963 H   0  0  0  0  0  0  0  0  0  0  0  0
  -17.5029   16.1018   25.9760 C   0  0  0  0  0  0  0  0  0  0  0  0
  -16.7741   17.0572   25.8453 O   0  0  0  0  0  0  0  0  0  0  0  0
  -18.8050   15.9570   26.7602 C   0  0  0  0  0  0  0  0  0  0  0  0
  -18.6194   16.1257   27.8234 H   0  0  0  0  0  0  0  0  0  0  0  0
  -19.5577   16.6392   26.3583 H   0  0  0  0  0  0  0  0  0  0  0  0
  -19.1462   14.5269   26.4763 C   0  0  0  0  0  0  0  0  0  0  0  0
  -20.2206   13.7472   26.8906 C   0  0  0  0  0  0  0  0  0  0  0  0
  -20.9735   14.1558   27.5164 H   0  0  0  0  0  0  0  0  0  0  0  0
  -20.2966   12.4162   26.4716 C   0  0  0  0  0  0  0  0  0  0  0  0
  -21.1103   11.8123   26.7806 H   0  0  0  0  0  0  0  0  0  0  0  0
  1  2  1  0
  2  3  1  0
  2 16  2  0
  3  4  1  0
  3  5  2  0
  5  6  1  0
  5 13  1  0
  6  7  1  0
  6  8  1  0
  8  9  2  0
  8 10  1  0
 10 11  1  0
 10 12  1  0
 10 13  1  0
 13 14  2  0
 14 15  1  0
 14 16  1  0
 16 17  1  0
M  END
$$$$
