
     RDKit          3D

 17 18  0  0  0  0  0  0  0  0999 V2000
  -22.0418   11.4823   28.0536 Br  0  0  0  0  0  0  0  0  0  0  0  0
  -20.7648   12.4757   27.0748 C   0  0  0  0  0  0  0  0  0  0  0  0
  -20.5334   13.8123   27.3912 C   0  0  0  0  0  0  0  0  0  0  0  0
  -21.0615   14.2910   28.1735 H   0  0  0  0  0  0  0  0  0  0  0  0
  -19.5871   14.4995   26.6429 C   0  0  0  0  0  0  0  0  0  0  0  0
  -19.1967   15.8236   26.7775 N   0  0  0  0  0  0  0  0  0  0  0  0
  -19.5472   16.5115   27.4550 H   0  0  0  0  0  0  0  0  0  0  0  0
  -18.2458   16.1461   25.8692 C   0  0  0  0  0  0  0  0  0  0  0  0
  -17.7791   17.2603   25.8294 O   0  0  0  0  0  0  0  0  0  0  0  0
  -17.9401   14.9198   25.0124 C   0  0  0  0  0  0  0  0  0  0  0  0
  -18.1840   15.1259   23.9677 H   0  0  0  0  0  0  0  0  0  0  0  0
  -16.8958   14.6269   25.1434 H   0  0  0  0  0  0  0  0  0  0  0  0
  -18.8757   13.9170   25.6134 C   0  0  0  0  0  0  0  0  0  0  0  0
  -19.1050   12.5820   25.2986 C   0  0  0  0  0  0  0  0  0  0  0  0
  -18.5688   12.1139   24.5119 H   0  0  0  0  0  0  0  0  0  0  0  0
  -20.0521   11.8630   26.0327 C   0  0  0  0  0  0  0  0  0  0  0  0
  -20.2356   10.8454   25.8022 H   0  0  0  0  0  0  0  0  0  0  0  0
  1  2  1  0
  2  3  1  0
  2 16  2  0
  3  4  1  0
  3  5  2  0
  5  6  1  0
  5 13  1  0
  6  7  1  0
  6  8  1  0
  8  9  2  0
  8 10  1  0
 10 11  1  0
 10 12  1  0
 10 13  1  0
 13 14  2  0
 14 15  1  0
 14 16  1  0
 16 17  1  0
M  END
$$$$
