
     RDKit          3D

 22 22  0  0  0  0  0  0  0  0999 V2000
  -23.5005   12.8033   29.8410 O   0  0  0  0  0  0  0  0  0  0  0  0
  -24.3168   12.8706   29.3161 H   0  0  0  0  0  0  0  0  0  0  0  0
  -22.9485   11.5141   29.5887 C   0  0  0  0  0  0  0  0  0  0  0  0
  -22.0333   11.3995   30.1796 H   0  0  0  0  0  0  0  0  0  0  0  0
  -23.6799   10.7709   29.9218 H   0  0  0  0  0  0  0  0  0  0  0  0
  -22.6799   11.3417   28.0951 C   0  0  0  0  0  0  0  0  0  0  0  0
  -22.5033   10.2790   27.8882 H   0  0  0  0  0  0  0  0  0  0  0  0
  -23.5630   11.6448   27.5179 H   0  0  0  0  0  0  0  0  0  0  0  0
  -21.5005   12.1313   27.6211 C   0  0  0  0  0  0  0  0  0  0  0  0
  -20.4930   11.7002   26.8292 C   0  0  0  0  0  0  0  0  0  0  0  0
  -20.3018   10.7590   26.3847 H   0  0  0  0  0  0  0  0  0  0  0  0
  -19.6681   12.7580   26.6680 N   0  0  0  0  0  0  0  0  0  0  0  0
  -18.4427   12.8223   25.9016 C   0  0  0  0  0  0  0  0  0  0  0  0
  -17.8097   13.5966   26.3482 H   0  0  0  0  0  0  0  0  0  0  0  0
  -17.9292   11.8614   26.0140 H   0  0  0  0  0  0  0  0  0  0  0  0
  -18.6988   13.1292   24.4369 C   0  0  0  0  0  0  0  0  0  0  0  0
  -19.2105   14.0914   24.3191 H   0  0  0  0  0  0  0  0  0  0  0  0
  -19.3263   12.3598   23.9745 H   0  0  0  0  0  0  0  0  0  0  0  0
  -17.7536   13.1756   23.8873 H   0  0  0  0  0  0  0  0  0  0  0  0
  -20.1138   13.8514   27.3354 N   0  0  0  0  0  0  0  0  0  0  0  0
  -21.2225   13.4653   27.9064 C   0  0  0  0  0  0  0  0  0  0  0  0
  -21.8216   14.1003   28.5122 H   0  0  0  0  0  0  0  0  0  0  0  0
  1  2  1  0
  1  3  1  0
  3  4  1  0
  3  5  1  0
  3  6  1  0
  6  7  1  0
  6  8  1  0
  6  9  1  0
  9 10  2  0
  9 21  1  0
 10 11  1  0
 10 12  1  0
 12 13  1  0
 12 20  1  0
 13 14  1  0
 13 15  1  0
 13 16  1  0
 16 17  1  0
 16 18  1  0
 16 19  1  0
 20 21  2  0
 21 22  1  0
M  END
$$$$
