
     RDKit          3D

 24 25  0  0  0  0  0  0  0  0999 V2000
  -23.8324   12.7975   28.8173 S   0  0  0  0  0  0  0  0  0  0  0  0
  -23.2725   14.1141   29.0501 O   0  0  0  0  0  0  0  0  0  0  0  0
  -24.8368   12.2474   29.7128 O   0  0  0  0  0  0  0  0  0  0  0  0
  -22.5011   11.6132   28.7038 C   0  0  0  0  0  0  0  0  0  0  0  0
  -22.0665   11.5005   29.7009 H   0  0  0  0  0  0  0  0  0  0  0  0
  -22.9281   10.6613   28.3764 H   0  0  0  0  0  0  0  0  0  0  0  0
  -21.4737   12.1015   27.7438 C   0  0  0  0  0  0  0  0  0  0  0  0
  -20.9802   13.3778   27.7672 N   0  0  0  0  0  0  0  0  0  0  0  0
  -21.2726   14.1357   28.4003 H   0  0  0  0  0  0  0  0  0  0  0  0
  -20.0327   13.4807   26.8030 C   0  0  0  0  0  0  0  0  0  0  0  0
  -19.9866   12.2311   26.2207 C   0  0  0  0  0  0  0  0  0  0  0  0
  -20.8968   11.3936   26.8303 N   0  0  0  0  0  0  0  0  0  0  0  0
  -19.0885   12.0028   25.1697 C   0  0  0  0  0  0  0  0  0  0  0  0
  -19.0488   11.0468   24.7170 H   0  0  0  0  0  0  0  0  0  0  0  0
  -18.2691   13.0394   24.7409 C   0  0  0  0  0  0  0  0  0  0  0  0
  -17.5870   12.8783   23.9464 H   0  0  0  0  0  0  0  0  0  0  0  0
  -18.3350   14.3118   25.3550 C   0  0  0  0  0  0  0  0  0  0  0  0
  -17.6996   15.0894   25.0124 H   0  0  0  0  0  0  0  0  0  0  0  0
  -19.2198   14.5470   26.3951 C   0  0  0  0  0  0  0  0  0  0  0  0
  -19.2804   15.4955   26.8634 H   0  0  0  0  0  0  0  0  0  0  0  0
  -24.5102   12.7854   27.1770 C   0  0  0  0  0  0  0  0  0  0  0  0
  -23.7364   13.0989   26.4742 H   0  0  0  0  0  0  0  0  0  0  0  0
  -25.3478   13.4853   27.1490 H   0  0  0  0  0  0  0  0  0  0  0  0
  -24.8586   11.7765   26.9456 H   0  0  0  0  0  0  0  0  0  0  0  0
  1  2  2  0
  1  3  2  0
  1  4  1  0
  1 21  1  0
  4  5  1  0
  4  6  1  0
  4  7  1  0
  7  8  1  0
  7 12  2  0
  8  9  1  0
  8 10  1  0
 10 11  1  0
 10 19  2  0
 11 12  1  0
 11 13  2  0
 13 14  1  0
 13 15  1  0
 15 16  1  0
 15 17  2  0
 17 18  1  0
 17 19  1  0
 19 20  1  0
 21 22  1  0
 21 23  1  0
 21 24  1  0
M  END
$$$$
