
     RDKit          3D

 23 24  0  0  0  0  0  0  0  0999 V2000
  -16.8790   15.8894   26.8458 N   0  0  0  0  0  0  0  0  0  0  0  0
  -16.9072   15.6137   27.8393 H   0  0  0  0  0  0  0  0  0  0  0  0
  -16.4683   15.0731   26.3708 H   0  0  0  0  0  0  0  0  0  0  0  0
  -18.2922   16.0408   26.3683 C   0  0  0  0  0  0  0  0  0  0  0  0
  -18.7003   16.9267   26.8636 H   0  0  0  0  0  0  0  0  0  0  0  0
  -18.2443   16.2062   25.2866 H   0  0  0  0  0  0  0  0  0  0  0  0
  -19.0913   14.8355   26.6856 C   0  0  0  0  0  0  0  0  0  0  0  0
  -18.9780   13.6443   26.0835 N   0  0  0  0  0  0  0  0  0  0  0  0
  -19.8878   12.8301   26.6662 C   0  0  0  0  0  0  0  0  0  0  0  0
  -20.5256   13.5070   27.5935 N   0  0  0  0  0  0  0  0  0  0  0  0
  -20.0154   14.7648   27.6004 N   0  0  0  0  0  0  0  0  0  0  0  0
  -19.9931   11.4808   26.2138 C   0  0  0  0  0  0  0  0  0  0  0  0
  -20.7068   10.8425   26.6681 H   0  0  0  0  0  0  0  0  0  0  0  0
  -19.1810   11.0353   25.2106 C   0  0  0  0  0  0  0  0  0  0  0  0
  -19.2478   10.0350   24.8629 H   0  0  0  0  0  0  0  0  0  0  0  0
  -18.2287   11.9244   24.6207 C   0  0  0  0  0  0  0  0  0  0  0  0
  -17.6037   11.5608   23.8428 H   0  0  0  0  0  0  0  0  0  0  0  0
  -18.1250   13.2185   25.0500 C   0  0  0  0  0  0  0  0  0  0  0  0
  -17.4499   13.9398   24.6702 H   0  0  0  0  0  0  0  0  0  0  0  0
  -16.0170   17.0810   26.6663 C   0  0  0  0  0  0  0  0  0  0  0  0
  -16.4533   17.9095   27.2280 H   0  0  0  0  0  0  0  0  0  0  0  0
  -15.9634   17.3085   25.5992 H   0  0  0  0  0  0  0  0  0  0  0  0
  -15.0268   16.8320   27.0552 H   0  0  0  0  0  0  0  0  0  0  0  0
  1  2  1  0
  1  3  1  0
  1  4  1  0
  1 20  1  0
  4  5  1  0
  4  6  1  0
  4  7  1  0
  7  8  1  0
  7 11  2  0
  8  9  1  0
  8 18  1  0
  9 10  2  0
  9 12  1  0
 10 11  1  0
 12 13  1  0
 12 14  2  0
 14 15  1  0
 14 16  1  0
 16 17  1  0
 16 18  2  0
 18 19  1  0
 20 21  1  0
 20 22  1  0
 20 23  1  0
M  END
$$$$
