
     RDKit          3D

 19 19  0  0  0  0  0  0  0  0999 V2000
  -18.2281   11.9559   24.5222 Br  0  0  0  0  0  0  0  0  0  0  0  0
  -19.3471   12.4375   25.9364 C   0  0  0  0  0  0  0  0  0  0  0  0
  -20.2734   11.6782   26.5599 C   0  0  0  0  0  0  0  0  0  0  0  0
  -20.5863   10.6781   26.4050 H   0  0  0  0  0  0  0  0  0  0  0  0
  -20.8193   12.4697   27.5094 N   0  0  0  0  0  0  0  0  0  0  0  0
  -21.8564   12.1362   28.4655 C   0  0  0  0  0  0  0  0  0  0  0  0
  -21.8875   11.0436   28.5425 H   0  0  0  0  0  0  0  0  0  0  0  0
  -21.5439   12.5448   29.4322 H   0  0  0  0  0  0  0  0  0  0  0  0
  -23.2078   12.7006   28.0550 C   0  0  0  0  0  0  0  0  0  0  0  0
  -23.1500   13.7799   27.8713 H   0  0  0  0  0  0  0  0  0  0  0  0
  -23.9334   12.5152   28.8546 H   0  0  0  0  0  0  0  0  0  0  0  0
  -23.6565   12.0294   26.8743 O   0  0  0  0  0  0  0  0  0  0  0  0
  -25.0056   12.3536   26.5651 C   0  0  0  0  0  0  0  0  0  0  0  0
  -25.2947   11.8032   25.6662 H   0  0  0  0  0  0  0  0  0  0  0  0
  -25.1052   13.4246   26.3665 H   0  0  0  0  0  0  0  0  0  0  0  0
  -25.6678   12.0590   27.3847 H   0  0  0  0  0  0  0  0  0  0  0  0
  -20.2717   13.7171   27.5068 N   0  0  0  0  0  0  0  0  0  0  0  0
  -19.3787   13.6847   26.5508 C   0  0  0  0  0  0  0  0  0  0  0  0
  -18.7702   14.5125   26.2915 H   0  0  0  0  0  0  0  0  0  0  0  0
  1  2  1  0
  2  3  2  0
  2 18  1  0
  3  4  1  0
  3  5  1  0
  5  6  1  0
  5 17  1  0
  6  7  1  0
  6  8  1  0
  6  9  1  0
  9 10  1  0
  9 11  1  0
  9 12  1  0
 12 13  1  0
 13 14  1  0
 13 15  1  0
 13 16  1  0
 17 18  2  0
 18 19  1  0
M  END
$$$$
