
     RDKit          3D

 21 21  0  0  0  0  0  0  0  0999 V2000
  -18.6057   17.2119   26.0131 Br  0  0  0  0  0  0  0  0  0  0  0  0
  -18.9250   15.3648   25.7537 C   0  0  0  0  0  0  0  0  0  0  0  0
  -19.3370   14.5721   26.8194 C   0  0  0  0  0  0  0  0  0  0  0  0
  -19.4732   14.9887   27.7809 H   0  0  0  0  0  0  0  0  0  0  0  0
  -19.5651   13.2144   26.6161 C   0  0  0  0  0  0  0  0  0  0  0  0
  -19.9491   12.4736   27.7034 O   0  0  0  0  0  0  0  0  0  0  0  0
  -21.3399   12.5582   28.0978 C   0  0  0  0  0  0  0  0  0  0  0  0
  -21.4470   12.0755   29.0678 H   0  0  0  0  0  0  0  0  0  0  0  0
  -21.9394   12.0525   27.3423 H   0  0  0  0  0  0  0  0  0  0  0  0
  -21.6270   13.6071   28.1644 H   0  0  0  0  0  0  0  0  0  0  0  0
  -19.4052   12.6277   25.3531 C   0  0  0  0  0  0  0  0  0  0  0  0
  -19.6849   11.1487   25.0844 C   0  0  0  0  0  0  0  0  0  0  0  0
  -20.1547   11.0510   24.1180 H   0  0  0  0  0  0  0  0  0  0  0  0
  -20.2768   10.7117   25.8712 H   0  0  0  0  0  0  0  0  0  0  0  0
  -18.3704   10.4038   25.0250 C   0  0  0  0  0  0  0  0  0  0  0  0
  -17.3206   11.0859   25.0339 O   0  0  0  0  0  0  0  0  0  0  0  0
  -18.4083    9.1577   24.9188 O   0  0  0  0  0  0  0  0  0  0  0  0
  -18.9845   13.4367   24.2988 C   0  0  0  0  0  0  0  0  0  0  0  0
  -18.8376   13.0055   23.3390 H   0  0  0  0  0  0  0  0  0  0  0  0
  -18.7453   14.7948   24.4943 C   0  0  0  0  0  0  0  0  0  0  0  0
  -18.4223   15.3935   23.6831 H   0  0  0  0  0  0  0  0  0  0  0  0
  1  2  1  0
  2  3  1  0
  2 20  2  0
  3  4  1  0
  3  5  2  0
  5  6  1  0
  5 11  1  0
  6  7  1  0
  7  8  1  0
  7  9  1  0
  7 10  1  0
 11 12  1  0
 11 18  2  0
 12 13  1  0
 12 14  1  0
 12 15  1  0
 15 16  1  0
 15 17  2  0
 18 19  1  0
 18 20  1  0
 20 21  1  0
M  END
$$$$
