
     RDKit          3D

 32 33  0  0  0  0  0  0  0  0999 V2000
  -17.4448   15.7209   27.3619 O   0  0  0  0  0  0  0  0  0  0  0  0
  -17.2160   15.2177   26.2718 C   0  0  0  0  0  0  0  0  0  0  0  0
  -16.2264   15.5982   25.4216 O   0  0  0  0  0  0  0  0  0  0  0  0
  -15.4660   16.7240   25.8662 C   0  0  0  0  0  0  0  0  0  0  0  0
  -14.9806   16.5050   26.8218 H   0  0  0  0  0  0  0  0  0  0  0  0
  -16.1074   17.6076   25.9500 H   0  0  0  0  0  0  0  0  0  0  0  0
  -14.6926   16.9255   25.1205 H   0  0  0  0  0  0  0  0  0  0  0  0
  -17.9302   14.2075   25.7043 N   0  0  0  0  0  0  0  0  0  0  0  0
  -17.6260   13.9750   24.7543 H   0  0  0  0  0  0  0  0  0  0  0  0
  -19.0113   13.4691   26.2325 C   0  0  0  0  0  0  0  0  0  0  0  0
  -19.2372   12.1234   25.9332 C   0  0  0  0  0  0  0  0  0  0  0  0
  -18.5930   11.6003   25.2775 H   0  0  0  0  0  0  0  0  0  0  0  0
  -20.3276   11.4713   26.4987 C   0  0  0  0  0  0  0  0  0  0  0  0
  -20.4991   10.4503   26.2697 H   0  0  0  0  0  0  0  0  0  0  0  0
  -21.1963   12.1492   27.3563 C   0  0  0  0  0  0  0  0  0  0  0  0
  -22.3920   11.4391   27.9505 C   0  0  0  0  0  0  0  0  0  0  0  0
  -22.0691   10.8486   28.8182 H   0  0  0  0  0  0  0  0  0  0  0  0
  -22.7764   10.6960   27.2392 H   0  0  0  0  0  0  0  0  0  0  0  0
  -23.5054   12.3734   28.3515 C   0  0  0  0  0  0  0  0  0  0  0  0
  -23.6897   12.7513   29.6762 C   0  0  0  0  0  0  0  0  0  0  0  0
  -23.0369   12.4021   30.4325 H   0  0  0  0  0  0  0  0  0  0  0  0
  -24.7418   13.5964   30.0145 C   0  0  0  0  0  0  0  0  0  0  0  0
  -24.8901   13.8887   31.0238 H   0  0  0  0  0  0  0  0  0  0  0  0
  -25.5905   14.0623   29.1010 N   0  0  0  0  0  0  0  0  0  0  0  0
  -25.4353   13.7117   27.8256 C   0  0  0  0  0  0  0  0  0  0  0  0
  -26.1270   14.0934   27.1170 H   0  0  0  0  0  0  0  0  0  0  0  0
  -24.4061   12.8697   27.4169 C   0  0  0  0  0  0  0  0  0  0  0  0
  -24.3170   12.6068   26.3943 H   0  0  0  0  0  0  0  0  0  0  0  0
  -20.9666   13.4982   27.6378 C   0  0  0  0  0  0  0  0  0  0  0  0
  -21.6206   14.0258   28.2835 H   0  0  0  0  0  0  0  0  0  0  0  0
  -19.8791   14.1600   27.0777 C   0  0  0  0  0  0  0  0  0  0  0  0
  -19.7074   15.1817   27.2983 H   0  0  0  0  0  0  0  0  0  0  0  0
  1  2  2  0
  2  3  1  0
  2  8  1  0
  3  4  1  0
  4  5  1  0
  4  6  1  0
  4  7  1  0
  8  9  1  0
  8 10  1  0
 10 11  1  0
 10 31  2  0
 11 12  1  0
 11 13  2  0
 13 14  1  0
 13 15  1  0
 15 16  1  0
 15 29  2  0
 16 17  1  0
 16 18  1  0
 16 19  1  0
 19 20  1  0
 19 27  2  0
 20 21  1  0
 20 22  2  0
 22 23  1  0
 22 24  1  0
 24 25  2  0
 25 26  1  0
 25 27  1  0
 27 28  1  0
 29 30  1  0
 29 31  1  0
 31 32  1  0
M  END
$$$$
