
     RDKit          3D

 20 20  0  0  0  0  0  0  0  0999 V2000
  -23.4369   11.9888   27.5691 S   0  0  0  0  0  0  0  0  0  0  0  0
  -23.3567   10.8743   28.4850 O   0  0  0  0  0  0  0  0  0  0  0  0
  -23.9999   11.8550   26.2430 O   0  0  0  0  0  0  0  0  0  0  0  0
  -21.8731   12.5921   27.3850 N   0  0  0  0  0  0  0  0  0  0  0  0
  -21.8424   13.4059   26.7667 H   0  0  0  0  0  0  0  0  0  0  0  0
  -21.4038   12.7356   28.2829 H   0  0  0  0  0  0  0  0  0  0  0  0
  -24.2375   13.3287   28.3833 C   0  0  0  0  0  0  0  0  0  0  0  0
  -25.2987   13.9982   27.7666 C   0  0  0  0  0  0  0  0  0  0  0  0
  -25.6191   13.7241   26.7948 H   0  0  0  0  0  0  0  0  0  0  0  0
  -25.9322   15.0263   28.4482 C   0  0  0  0  0  0  0  0  0  0  0  0
  -26.9470   15.6673   27.8501 F   0  0  0  0  0  0  0  0  0  0  0  0
  -25.5597   15.4124   29.7270 C   0  0  0  0  0  0  0  0  0  0  0  0
  -26.0730   16.2015   30.2135 H   0  0  0  0  0  0  0  0  0  0  0  0
  -24.5106   14.7434   30.3533 C   0  0  0  0  0  0  0  0  0  0  0  0
  -24.1125   15.1026   31.7550 C   0  0  0  0  0  0  0  0  0  0  0  0
  -24.3049   16.1614   31.9581 H   0  0  0  0  0  0  0  0  0  0  0  0
  -23.0427   14.9314   31.9127 H   0  0  0  0  0  0  0  0  0  0  0  0
  -24.6762   14.4971   32.4708 H   0  0  0  0  0  0  0  0  0  0  0  0
  -23.8622   13.7034   29.6809 C   0  0  0  0  0  0  0  0  0  0  0  0
  -23.0719   13.1792   30.1588 H   0  0  0  0  0  0  0  0  0  0  0  0
  1  2  2  0
  1  3  2  0
  1  4  1  0
  1  7  1  0
  4  5  1  0
  4  6  1  0
  7  8  1  0
  7 19  2  0
  8  9  1  0
  8 10  2  0
 10 11  1  0
 10 12  1  0
 12 13  1  0
 12 14  2  0
 14 15  1  0
 14 19  1  0
 15 16  1  0
 15 17  1  0
 15 18  1  0
 19 20  1  0
M  END
$$$$
