
     RDKit          3D

 29 30  0  0  0  0  0  0  0  0999 V2000
  -20.3566   10.3047   25.8072 O   0  0  0  0  0  0  0  0  0  0  0  0
  -20.4587   11.2091   26.6197 C   0  0  0  0  0  0  0  0  0  0  0  0
  -21.4813   11.2134   27.4774 N   0  0  0  0  0  0  0  0  0  0  0  0
  -21.2433   11.5389   28.4207 H   0  0  0  0  0  0  0  0  0  0  0  0
  -22.3963   11.4570   27.0904 H   0  0  0  0  0  0  0  0  0  0  0  0
  -19.5666   12.2434   26.7281 N   0  0  0  0  0  0  0  0  0  0  0  0
  -18.3066   12.1758   25.9824 C   0  0  0  0  0  0  0  0  0  0  0  0
  -18.2507   11.2696   25.3703 H   0  0  0  0  0  0  0  0  0  0  0  0
  -17.4998   12.1214   26.7235 H   0  0  0  0  0  0  0  0  0  0  0  0
  -18.1255   13.4102   25.0995 C   0  0  0  0  0  0  0  0  0  0  0  0
  -18.9080   13.4383   24.3315 H   0  0  0  0  0  0  0  0  0  0  0  0
  -17.1647   13.3580   24.5800 H   0  0  0  0  0  0  0  0  0  0  0  0
  -18.2601   14.6516   25.8767 N   0  0  0  0  0  0  0  0  0  0  0  0
  -17.2735   15.6305   25.8101 C   0  0  0  0  0  0  0  0  0  0  0  0
  -16.1915   15.2856   25.3340 O   0  0  0  0  0  0  0  0  0  0  0  0
  -17.5116   16.9763   26.2824 C   0  0  0  0  0  0  0  0  0  0  0  0
  -16.5380   17.6664   26.9494 O   0  0  0  0  0  0  0  0  0  0  0  0
  -17.0495   18.8613   27.3191 C   0  0  0  0  0  0  0  0  0  0  0  0
  -16.4499   19.5608   27.8432 H   0  0  0  0  0  0  0  0  0  0  0  0
  -18.3392   18.9466   26.9189 C   0  0  0  0  0  0  0  0  0  0  0  0
  -18.9881   19.7687   27.0749 H   0  0  0  0  0  0  0  0  0  0  0  0
  -18.6481   17.7302   26.2647 C   0  0  0  0  0  0  0  0  0  0  0  0
  -19.5731   17.4384   25.8364 H   0  0  0  0  0  0  0  0  0  0  0  0
  -19.4898   14.7373   26.6766 C   0  0  0  0  0  0  0  0  0  0  0  0
  -19.4666   15.5861   27.3623 H   0  0  0  0  0  0  0  0  0  0  0  0
  -20.3171   14.8806   25.9721 H   0  0  0  0  0  0  0  0  0  0  0  0
  -19.7268   13.4710   27.5203 C   0  0  0  0  0  0  0  0  0  0  0  0
  -20.7188   13.5397   27.9722 H   0  0  0  0  0  0  0  0  0  0  0  0
  -18.9894   13.4192   28.3305 H   0  0  0  0  0  0  0  0  0  0  0  0
  1  2  2  0
  2  3  1  0
  2  6  1  0
  3  4  1  0
  3  5  1  0
  6  7  1  0
  6 27  1  0
  7  8  1  0
  7  9  1  0
  7 10  1  0
 10 11  1  0
 10 12  1  0
 10 13  1  0
 13 14  1  0
 13 24  1  0
 14 15  2  0
 14 16  1  0
 16 17  1  0
 16 22  2  0
 17 18  1  0
 18 19  1  0
 18 20  2  0
 20 21  1  0
 20 22  1  0
 22 23  1  0
 24 25  1  0
 24 26  1  0
 24 27  1  0
 27 28  1  0
 27 29  1  0
M  END
$$$$
