
     RDKit          3D

 19 19  0  0  0  0  0  0  0  0999 V2000
  -19.1039   10.5701   25.2065 Br  0  0  0  0  0  0  0  0  0  0  0  0
  -19.0740   12.2835   25.9462 C   0  0  0  0  0  0  0  0  0  0  0  0
  -18.5203   13.4023   25.4315 C   0  0  0  0  0  0  0  0  0  0  0  0
  -17.9857   13.5761   24.5336 H   0  0  0  0  0  0  0  0  0  0  0  0
  -18.7581   14.3794   26.3341 N   0  0  0  0  0  0  0  0  0  0  0  0
  -18.3819   15.7772   26.2606 C   0  0  0  0  0  0  0  0  0  0  0  0
  -18.7730   16.1692   25.3152 H   0  0  0  0  0  0  0  0  0  0  0  0
  -18.8883   16.2887   27.0859 H   0  0  0  0  0  0  0  0  0  0  0  0
  -16.8754   15.9639   26.3562 C   0  0  0  0  0  0  0  0  0  0  0  0
  -16.3517   15.3781   25.5918 H   0  0  0  0  0  0  0  0  0  0  0  0
  -16.5346   15.6409   27.3460 H   0  0  0  0  0  0  0  0  0  0  0  0
  -16.5651   17.3518   26.2030 O   0  0  0  0  0  0  0  0  0  0  0  0
  -15.1656   17.5895   26.2784 C   0  0  0  0  0  0  0  0  0  0  0  0
  -14.9923   18.6631   26.1690 H   0  0  0  0  0  0  0  0  0  0  0  0
  -14.6453   17.0672   25.4705 H   0  0  0  0  0  0  0  0  0  0  0  0
  -14.7743   17.2684   27.2484 H   0  0  0  0  0  0  0  0  0  0  0  0
  -19.4441   13.9151   27.4158 N   0  0  0  0  0  0  0  0  0  0  0  0
  -19.6322   12.6441   27.1679 C   0  0  0  0  0  0  0  0  0  0  0  0
  -20.1433   11.9899   27.8264 H   0  0  0  0  0  0  0  0  0  0  0  0
  1  2  1  0
  2  3  2  0
  2 18  1  0
  3  4  1  0
  3  5  1  0
  5  6  1  0
  5 17  1  0
  6  7  1  0
  6  8  1  0
  6  9  1  0
  9 10  1  0
  9 11  1  0
  9 12  1  0
 12 13  1  0
 13 14  1  0
 13 15  1  0
 13 16  1  0
 17 18  2  0
 18 19  1  0
M  END
$$$$
