
     RDKit          3D

 23 23  0  0  0  0  0  0  0  0999 V2000
  -17.9868   11.9007   24.5363 Cl  0  0  0  0  0  0  0  0  0  0  0  0
  -19.2736   12.2384   25.6295 C   0  0  0  0  0  0  0  0  0  0  0  0
  -19.6029   13.5320   26.0649 C   0  0  0  0  0  0  0  0  0  0  0  0
  -18.9146   14.7766   25.6629 C   0  0  0  0  0  0  0  0  0  0  0  0
  -18.3729   15.0432   24.6005 O   0  0  0  0  0  0  0  0  0  0  0  0
  -18.8501   15.7855   26.5677 N   0  0  0  0  0  0  0  0  0  0  0  0
  -18.3679   16.6519   26.2994 H   0  0  0  0  0  0  0  0  0  0  0  0
  -19.2702   15.6628   27.4978 H   0  0  0  0  0  0  0  0  0  0  0  0
  -20.6402   13.6757   26.9278 N   0  0  0  0  0  0  0  0  0  0  0  0
  -21.3218   12.6213   27.3486 C   0  0  0  0  0  0  0  0  0  0  0  0
  -22.4653   12.8362   28.3075 C   0  0  0  0  0  0  0  0  0  0  0  0
  -22.3531   13.8299   28.7593 H   0  0  0  0  0  0  0  0  0  0  0  0
  -23.8053   12.8047   27.5749 C   0  0  0  0  0  0  0  0  0  0  0  0
  -23.9956   11.8265   27.1174 H   0  0  0  0  0  0  0  0  0  0  0  0
  -23.8331   13.5545   26.7759 H   0  0  0  0  0  0  0  0  0  0  0  0
  -24.6289   13.0179   28.2646 H   0  0  0  0  0  0  0  0  0  0  0  0
  -22.4309   11.8052   29.4356 C   0  0  0  0  0  0  0  0  0  0  0  0
  -22.5641   10.7855   29.0573 H   0  0  0  0  0  0  0  0  0  0  0  0
  -23.2277   11.9998   30.1620 H   0  0  0  0  0  0  0  0  0  0  0  0
  -21.4745   11.8391   29.9684 H   0  0  0  0  0  0  0  0  0  0  0  0
  -21.0251   11.3815   26.9480 N   0  0  0  0  0  0  0  0  0  0  0  0
  -20.0279   11.1737   26.1083 C   0  0  0  0  0  0  0  0  0  0  0  0
  -19.8087   10.1816   25.8027 H   0  0  0  0  0  0  0  0  0  0  0  0
  1  2  1  0
  2  3  1  0
  2 22  2  0
  3  4  1  0
  3  9  2  0
  4  5  2  0
  4  6  1  0
  6  7  1  0
  6  8  1  0
  9 10  1  0
 10 11  1  0
 10 21  2  0
 11 12  1  0
 11 13  1  0
 11 17  1  0
 13 14  1  0
 13 15  1  0
 13 16  1  0
 17 18  1  0
 17 19  1  0
 17 20  1  0
 21 22  1  0
 22 23  1  0
M  END
$$$$
