
     RDKit          3D

 26 26  0  0  0  0  0  0  0  0999 V2000
  -17.6429   17.6389   27.3845 S   0  0  0  0  0  0  0  0  0  0  0  0
  -16.5475   16.9117   27.9880 O   0  0  0  0  0  0  0  0  0  0  0  0
  -18.9101   17.8058   28.0639 O   0  0  0  0  0  0  0  0  0  0  0  0
  -17.9851   16.9671   25.8781 N   0  0  0  0  0  0  0  0  0  0  0  0
  -17.2729   17.1333   25.1627 H   0  0  0  0  0  0  0  0  0  0  0  0
  -18.7203   15.6905   25.7981 C   0  0  0  0  0  0  0  0  0  0  0  0
  -19.3949   15.6364   26.6597 H   0  0  0  0  0  0  0  0  0  0  0  0
  -19.3239   15.6416   24.8853 H   0  0  0  0  0  0  0  0  0  0  0  0
  -17.7456   14.5118   25.8542 C   0  0  0  0  0  0  0  0  0  0  0  0
  -16.9375   14.6453   25.1232 H   0  0  0  0  0  0  0  0  0  0  0  0
  -17.2592   14.4961   26.8379 H   0  0  0  0  0  0  0  0  0  0  0  0
  -18.4183   13.1756   25.6272 C   0  0  0  0  0  0  0  0  0  0  0  0
  -18.0262   12.3665   24.5543 C   0  0  0  0  0  0  0  0  0  0  0  0
  -17.2679   12.6918   23.8905 H   0  0  0  0  0  0  0  0  0  0  0  0
  -18.6312   11.1284   24.3520 C   0  0  0  0  0  0  0  0  0  0  0  0
  -18.3433   10.5075   23.5435 H   0  0  0  0  0  0  0  0  0  0  0  0
  -19.6218   10.7160   25.2316 C   0  0  0  0  0  0  0  0  0  0  0  0
  -20.2051    9.5244   25.0382 F   0  0  0  0  0  0  0  0  0  0  0  0
  -20.0257   11.4957   26.3057 C   0  0  0  0  0  0  0  0  0  0  0  0
  -20.7797   11.1499   26.9631 H   0  0  0  0  0  0  0  0  0  0  0  0
  -19.4173   12.7334   26.5004 C   0  0  0  0  0  0  0  0  0  0  0  0
  -19.7105   13.3364   27.3224 H   0  0  0  0  0  0  0  0  0  0  0  0
  -17.0563   19.2568   26.9307 C   0  0  0  0  0  0  0  0  0  0  0  0
  -16.1329   19.1583   26.3572 H   0  0  0  0  0  0  0  0  0  0  0  0
  -16.8593   19.8125   27.8503 H   0  0  0  0  0  0  0  0  0  0  0  0
  -17.8288   19.7643   26.3505 H   0  0  0  0  0  0  0  0  0  0  0  0
  1  2  2  0
  1  3  2  0
  1  4  1  0
  1 23  1  0
  4  5  1  0
  4  6  1  0
  6  7  1  0
  6  8  1  0
  6  9  1  0
  9 10  1  0
  9 11  1  0
  9 12  1  0
 12 13  1  0
 12 21  2  0
 13 14  1  0
 13 15  2  0
 15 16  1  0
 15 17  1  0
 17 18  1  0
 17 19  2  0
 19 20  1  0
 19 21  1  0
 21 22  1  0
 23 24  1  0
 23 25  1  0
 23 26  1  0
M  END
$$$$
