
     RDKit          3D

 27 28  0  0  0  0  0  0  0  0999 V2000
  -22.9762   11.9884   27.7531 O   0  0  0  0  0  0  0  0  0  0  0  0
  -21.6469   12.4430   27.5382 C   0  0  0  0  0  0  0  0  0  0  0  0
  -21.4468   12.3939   26.4631 H   0  0  0  0  0  0  0  0  0  0  0  0
  -20.9212   11.7941   28.0404 H   0  0  0  0  0  0  0  0  0  0  0  0
  -21.5302   13.4862   27.8496 H   0  0  0  0  0  0  0  0  0  0  0  0
  -23.4535   11.9407   29.0461 C   0  0  0  0  0  0  0  0  0  0  0  0
  -24.2344   13.0327   29.4510 C   0  0  0  0  0  0  0  0  0  0  0  0
  -24.7169   13.0372   30.7684 C   0  0  0  0  0  0  0  0  0  0  0  0
  -25.4793   14.0537   31.3917 N   0  0  0  0  0  0  0  0  0  0  0  0
  -25.8273   13.8278   32.3313 H   0  0  0  0  0  0  0  0  0  0  0  0
  -25.8586   15.3069   31.0267 C   0  0  0  0  0  0  0  0  0  0  0  0
  -26.4935   15.8765   31.8836 O   0  0  0  0  0  0  0  0  0  0  0  0
  -25.4552   15.9429   29.7423 C   0  0  0  0  0  0  0  0  0  0  0  0
  -26.0807   16.8345   29.6116 H   0  0  0  0  0  0  0  0  0  0  0  0
  -24.4149   16.2788   29.8156 H   0  0  0  0  0  0  0  0  0  0  0  0
  -25.6878   15.0090   28.5828 C   0  0  0  0  0  0  0  0  0  0  0  0
  -26.6140   14.4330   28.7038 H   0  0  0  0  0  0  0  0  0  0  0  0
  -25.8000   15.6071   27.6708 H   0  0  0  0  0  0  0  0  0  0  0  0
  -24.4989   14.0861   28.3963 C   0  0  0  0  0  0  0  0  0  0  0  0
  -23.5846   14.6810   28.2716 H   0  0  0  0  0  0  0  0  0  0  0  0
  -24.6835   13.5831   27.4380 H   0  0  0  0  0  0  0  0  0  0  0  0
  -24.4285   11.9880   31.6444 C   0  0  0  0  0  0  0  0  0  0  0  0
  -24.8011   12.0073   32.6361 H   0  0  0  0  0  0  0  0  0  0  0  0
  -23.6566   10.9152   31.2190 C   0  0  0  0  0  0  0  0  0  0  0  0
  -23.4415   10.1191   31.8845 H   0  0  0  0  0  0  0  0  0  0  0  0
  -23.1671   10.8860   29.9182 C   0  0  0  0  0  0  0  0  0  0  0  0
  -22.5803   10.0652   29.6015 H   0  0  0  0  0  0  0  0  0  0  0  0
  1  2  1  0
  1  6  1  0
  2  3  1  0
  2  4  1  0
  2  5  1  0
  6  7  1  0
  6 26  2  0
  7  8  2  0
  7 19  1  0
  8  9  1  0
  8 22  1  0
  9 10  1  0
  9 11  1  0
 11 12  2  0
 11 13  1  0
 13 14  1  0
 13 15  1  0
 13 16  1  0
 16 17  1  0
 16 18  1  0
 16 19  1  0
 19 20  1  0
 19 21  1  0
 22 23  1  0
 22 24  2  0
 24 25  1  0
 24 26  1  0
 26 27  1  0
M  END
$$$$
