
     RDKit          3D

 23 23  0  0  0  0  0  0  0  0999 V2000
  -23.9242   12.5733   31.0136 S   0  0  0  0  0  0  0  0  0  0  0  0
  -23.1024   13.1813   32.0477 O   0  0  0  0  0  0  0  0  0  0  0  0
  -25.0527   11.7322   31.3643 O   0  0  0  0  0  0  0  0  0  0  0  0
  -22.8492   11.6447   29.9516 C   0  0  0  0  0  0  0  0  0  0  0  0
  -22.0525   12.2986   29.5909 H   0  0  0  0  0  0  0  0  0  0  0  0
  -23.4272   11.2412   29.1180 H   0  0  0  0  0  0  0  0  0  0  0  0
  -22.4215   10.8266   30.5341 H   0  0  0  0  0  0  0  0  0  0  0  0
  -24.5245   13.8610   29.9566 C   0  0  0  0  0  0  0  0  0  0  0  0
  -24.2251   15.2187   30.1639 C   0  0  0  0  0  0  0  0  0  0  0  0
  -23.4371   15.5922   31.2497 N   0  0  0  0  0  0  0  0  0  0  0  0
  -23.0662   14.8332   31.8395 H   0  0  0  0  0  0  0  0  0  0  0  0
  -23.1243   16.9476   31.6334 C   0  0  0  0  0  0  0  0  0  0  0  0
  -22.6175   17.4812   30.8223 H   0  0  0  0  0  0  0  0  0  0  0  0
  -22.4507   16.9364   32.4961 H   0  0  0  0  0  0  0  0  0  0  0  0
  -24.0264   17.4947   31.9237 H   0  0  0  0  0  0  0  0  0  0  0  0
  -24.6937   16.1876   29.2666 C   0  0  0  0  0  0  0  0  0  0  0  0
  -24.4486   17.2077   29.3992 H   0  0  0  0  0  0  0  0  0  0  0  0
  -25.4875   15.8133   28.1907 C   0  0  0  0  0  0  0  0  0  0  0  0
  -25.8485   16.5480   27.5174 H   0  0  0  0  0  0  0  0  0  0  0  0
  -25.8137   14.4753   27.9951 C   0  0  0  0  0  0  0  0  0  0  0  0
  -26.4269   14.1926   27.1766 H   0  0  0  0  0  0  0  0  0  0  0  0
  -25.3314   13.5082   28.8719 C   0  0  0  0  0  0  0  0  0  0  0  0
  -25.5797   12.4892   28.7140 H   0  0  0  0  0  0  0  0  0  0  0  0
  1  2  2  0
  1  3  2  0
  1  4  1  0
  1  8  1  0
  4  5  1  0
  4  6  1  0
  4  7  1  0
  8  9  1  0
  8 22  2  0
  9 10  1  0
  9 16  2  0
 10 11  1  0
 10 12  1  0
 12 13  1  0
 12 14  1  0
 12 15  1  0
 16 17  1  0
 16 18  1  0
 18 19  1  0
 18 20  2  0
 20 21  1  0
 20 22  1  0
 22 23  1  0
M  END
$$$$
