
     RDKit          3D

 29 31  0  0  0  0  0  0  0  0999 V2000
  -24.0460   11.8881   29.9507 O   0  0  0  0  0  0  0  0  0  0  0  0
  -23.9712   13.0913   30.0616 C   0  0  0  0  0  0  0  0  0  0  0  0
  -23.0078   13.8116   29.4237 N   0  0  0  0  0  0  0  0  0  0  0  0
  -23.0057   14.8211   29.5921 H   0  0  0  0  0  0  0  0  0  0  0  0
  -22.0098   13.3924   28.5755 C   0  0  0  0  0  0  0  0  0  0  0  0
  -21.8441   11.7293   28.1019 S   0  0  0  0  0  0  0  0  0  0  0  0
  -20.4793   12.1930   27.1461 C   0  0  0  0  0  0  0  0  0  0  0  0
  -20.2688   13.5657   27.2690 C   0  0  0  0  0  0  0  0  0  0  0  0
  -21.1581   14.2424   28.0946 N   0  0  0  0  0  0  0  0  0  0  0  0
  -19.2030   14.1545   26.5685 C   0  0  0  0  0  0  0  0  0  0  0  0
  -19.0378   15.1960   26.6587 H   0  0  0  0  0  0  0  0  0  0  0  0
  -18.3801   13.3722   25.7709 C   0  0  0  0  0  0  0  0  0  0  0  0
  -17.5783   13.8199   25.2443 H   0  0  0  0  0  0  0  0  0  0  0  0
  -18.6181   11.9834   25.6644 C   0  0  0  0  0  0  0  0  0  0  0  0
  -17.8750   11.1121   24.9074 O   0  0  0  0  0  0  0  0  0  0  0  0
  -18.5428   10.4322   23.8509 C   0  0  0  0  0  0  0  0  0  0  0  0
  -18.9187   11.1384   23.1030 H   0  0  0  0  0  0  0  0  0  0  0  0
  -17.8131    9.7832   23.3573 H   0  0  0  0  0  0  0  0  0  0  0  0
  -19.3465    9.7962   24.2361 H   0  0  0  0  0  0  0  0  0  0  0  0
  -19.6617   11.3841   26.3453 C   0  0  0  0  0  0  0  0  0  0  0  0
  -19.8369   10.3430   26.2652 H   0  0  0  0  0  0  0  0  0  0  0  0
  -24.9260   13.8718   30.8787 C   0  0  0  0  0  0  0  0  0  0  0  0
  -25.8061   14.1930   30.3281 H   0  0  0  0  0  0  0  0  0  0  0  0
  -24.4449   14.7661   31.9969 C   0  0  0  0  0  0  0  0  0  0  0  0
  -23.3857   14.8108   32.2246 H   0  0  0  0  0  0  0  0  0  0  0  0
  -24.9729   15.6972   32.1630 H   0  0  0  0  0  0  0  0  0  0  0  0
  -25.1626   13.4889   32.3195 C   0  0  0  0  0  0  0  0  0  0  0  0
  -26.1748   13.5540   32.6999 H   0  0  0  0  0  0  0  0  0  0  0  0
  -24.5847   12.6708   32.7367 H   0  0  0  0  0  0  0  0  0  0  0  0
  1  2  2  0
  2  3  1  0
  2 22  1  0
  3  4  1  0
  3  5  1  0
  5  6  1  0
  5  9  2  0
  6  7  1  0
  7  8  1  0
  7 20  2  0
  8  9  1  0
  8 10  2  0
 10 11  1  0
 10 12  1  0
 12 13  1  0
 12 14  2  0
 14 15  1  0
 14 20  1  0
 15 16  1  0
 16 17  1  0
 16 18  1  0
 16 19  1  0
 20 21  1  0
 22 23  1  0
 22 24  1  0
 22 27  1  0
 24 25  1  0
 24 26  1  0
 24 27  1  0
 27 28  1  0
 27 29  1  0
M  END
$$$$
