
     RDKit          3D

 19 19  0  0  0  0  0  0  0  0999 V2000
  -22.6400   10.2766   27.4640 Br  0  0  0  0  0  0  0  0  0  0  0  0
  -21.2705   11.5009   27.1130 C   0  0  0  0  0  0  0  0  0  0  0  0
  -20.1852   11.1448   26.3723 C   0  0  0  0  0  0  0  0  0  0  0  0
  -20.0824   10.1706   25.9759 H   0  0  0  0  0  0  0  0  0  0  0  0
  -19.1405   12.0815   26.1082 C   0  0  0  0  0  0  0  0  0  0  0  0
  -18.1198   11.8161   25.4602 O   0  0  0  0  0  0  0  0  0  0  0  0
  -19.2787   13.3744   26.6230 N   0  0  0  0  0  0  0  0  0  0  0  0
  -18.2361   14.3709   26.3717 C   0  0  0  0  0  0  0  0  0  0  0  0
  -18.3382   15.1925   27.0912 H   0  0  0  0  0  0  0  0  0  0  0  0
  -17.2469   13.9347   26.5626 H   0  0  0  0  0  0  0  0  0  0  0  0
  -18.3034   14.9318   24.9523 C   0  0  0  0  0  0  0  0  0  0  0  0
  -18.1950   16.0213   24.9417 H   0  0  0  0  0  0  0  0  0  0  0  0
  -19.2668   14.6906   24.4909 H   0  0  0  0  0  0  0  0  0  0  0  0
  -17.2767   14.3651   24.1466 O   0  0  0  0  0  0  0  0  0  0  0  0
  -17.3494   13.3968   24.2224 H   0  0  0  0  0  0  0  0  0  0  0  0
  -20.3851   13.7352   27.3841 C   0  0  0  0  0  0  0  0  0  0  0  0
  -20.3977   14.7364   27.7398 H   0  0  0  0  0  0  0  0  0  0  0  0
  -21.3693   12.8234   27.6296 C   0  0  0  0  0  0  0  0  0  0  0  0
  -22.2169   13.0892   28.2078 H   0  0  0  0  0  0  0  0  0  0  0  0
  1  2  1  0
  2  3  2  0
  2 18  1  0
  3  4  1  0
  3  5  1  0
  5  6  2  0
  5  7  1  0
  7  8  1  0
  7 16  1  0
  8  9  1  0
  8 10  1  0
  8 11  1  0
 11 12  1  0
 11 13  1  0
 11 14  1  0
 14 15  1  0
 16 17  1  0
 16 18  2  0
 18 19  1  0
M  END
$$$$
