
     RDKit          3D

 23 24  0  0  0  0  0  0  0  0999 V2000
  -19.6881   10.6000   24.6878 O   0  0  0  0  0  0  0  0  0  0  0  0
  -19.4747   11.7182   25.1458 C   0  0  0  0  0  0  0  0  0  0  0  0
  -20.1680   12.0703   26.2924 N   0  0  0  0  0  0  0  0  0  0  0  0
  -20.1799   13.3600   26.9742 C   0  0  0  0  0  0  0  0  0  0  0  0
  -19.1721   13.6917   27.2267 H   0  0  0  0  0  0  0  0  0  0  0  0
  -20.6459   14.0913   26.3056 H   0  0  0  0  0  0  0  0  0  0  0  0
  -21.0102   13.1324   28.2320 C   0  0  0  0  0  0  0  0  0  0  0  0
  -20.3609   12.8022   29.0524 H   0  0  0  0  0  0  0  0  0  0  0  0
  -21.5382   14.0322   28.5559 H   0  0  0  0  0  0  0  0  0  0  0  0
  -21.9452   12.0011   27.8332 C   0  0  0  0  0  0  0  0  0  0  0  0
  -22.7809   12.4009   27.2464 H   0  0  0  0  0  0  0  0  0  0  0  0
  -22.3534   11.4597   28.6909 H   0  0  0  0  0  0  0  0  0  0  0  0
  -21.0613   11.1304   26.9556 C   0  0  0  0  0  0  0  0  0  0  0  0
  -21.6361   10.5424   26.2345 H   0  0  0  0  0  0  0  0  0  0  0  0
  -20.4441   10.4515   27.5557 H   0  0  0  0  0  0  0  0  0  0  0  0
  -18.5904   12.6665   24.4959 C   0  0  0  0  0  0  0  0  0  0  0  0
  -17.3627   12.3421   23.9997 C   0  0  0  0  0  0  0  0  0  0  0  0
  -16.8454   11.4182   23.9649 H   0  0  0  0  0  0  0  0  0  0  0  0
  -16.8451   13.4824   23.5157 N   0  0  0  0  0  0  0  0  0  0  0  0
  -15.9122   13.5696   23.0683 H   0  0  0  0  0  0  0  0  0  0  0  0
  -17.6866   14.5400   23.6840 N   0  0  0  0  0  0  0  0  0  0  0  0
  -18.7297   14.0404   24.2832 C   0  0  0  0  0  0  0  0  0  0  0  0
  -19.5635   14.6266   24.5754 H   0  0  0  0  0  0  0  0  0  0  0  0
  1  2  2  0
  2  3  1  0
  2 16  1  0
  3  4  1  0
  3 13  1  0
  4  5  1  0
  4  6  1  0
  4  7  1  0
  7  8  1  0
  7  9  1  0
  7 10  1  0
 10 11  1  0
 10 12  1  0
 10 13  1  0
 13 14  1  0
 13 15  1  0
 16 17  2  0
 16 22  1  0
 17 18  1  0
 17 19  1  0
 19 20  1  0
 19 21  1  0
 21 22  2  0
 22 23  1  0
M  END
$$$$
