
     RDKit          3D

 26 27  0  0  0  0  0  0  0  0999 V2000
  -24.0254   12.5164   26.3826 O   0  0  0  0  0  0  0  0  0  0  0  0
  -24.5133   12.6478   27.5124 C   0  0  0  0  0  0  0  0  0  0  0  0
  -23.9297   11.9839   28.5999 N   0  0  0  0  0  0  0  0  0  0  0  0
  -22.7355   11.1619   28.4221 C   0  0  0  0  0  0  0  0  0  0  0  0
  -22.4281   10.7771   29.4018 H   0  0  0  0  0  0  0  0  0  0  0  0
  -22.9708   10.2988   27.7899 H   0  0  0  0  0  0  0  0  0  0  0  0
  -21.6506   11.9711   27.8240 C   0  0  0  0  0  0  0  0  0  0  0  0
  -21.5337   13.2377   28.2289 O   0  0  0  0  0  0  0  0  0  0  0  0
  -20.5197   13.8350   27.5892 N   0  0  0  0  0  0  0  0  0  0  0  0
  -20.0045   12.9619   26.7943 C   0  0  0  0  0  0  0  0  0  0  0  0
  -18.8501   13.2954   25.9348 C   0  0  0  0  0  0  0  0  0  0  0  0
  -18.6742   12.5120   25.1901 H   0  0  0  0  0  0  0  0  0  0  0  0
  -17.9414   13.3981   26.5375 H   0  0  0  0  0  0  0  0  0  0  0  0
  -19.0186   14.2354   25.3994 H   0  0  0  0  0  0  0  0  0  0  0  0
  -20.6937   11.7631   26.9066 C   0  0  0  0  0  0  0  0  0  0  0  0
  -20.5098   10.8640   26.3778 H   0  0  0  0  0  0  0  0  0  0  0  0
  -24.4268   12.0649   29.8849 N   0  0  0  0  0  0  0  0  0  0  0  0
  -25.4786   12.7818   30.1313 C   0  0  0  0  0  0  0  0  0  0  0  0
  -26.0037   12.8533   31.5372 C   0  0  0  0  0  0  0  0  0  0  0  0
  -25.2071   13.1990   32.2038 H   0  0  0  0  0  0  0  0  0  0  0  0
  -26.3234   11.8553   31.8529 H   0  0  0  0  0  0  0  0  0  0  0  0
  -26.8516   13.5381   31.6155 H   0  0  0  0  0  0  0  0  0  0  0  0
  -26.1369   13.4976   29.0893 C   0  0  0  0  0  0  0  0  0  0  0  0
  -26.9922   14.0776   29.3230 H   0  0  0  0  0  0  0  0  0  0  0  0
  -25.6661   13.4351   27.8106 C   0  0  0  0  0  0  0  0  0  0  0  0
  -26.1318   13.9544   27.0152 H   0  0  0  0  0  0  0  0  0  0  0  0
  1  2  2  0
  2  3  1  0
  2 25  1  0
  3  4  1  0
  3 17  1  0
  4  5  1  0
  4  6  1  0
  4  7  1  0
  7  8  1  0
  7 15  2  0
  8  9  1  0
  9 10  2  0
 10 11  1  0
 10 15  1  0
 11 12  1  0
 11 13  1  0
 11 14  1  0
 15 16  1  0
 17 18  2  0
 18 19  1  0
 18 23  1  0
 19 20  1  0
 19 21  1  0
 19 22  1  0
 23 24  1  0
 23 25  2  0
 25 26  1  0
M  END
$$$$
