
     RDKit          3D

 30 31  0  0  0  0  0  0  0  0999 V2000
  -18.9779   13.4425   25.4470 N   0  0  0  0  0  0  0  0  0  0  0  0
  -19.4232   12.6116   26.5822 C   0  0  0  0  0  0  0  0  0  0  0  0
  -18.8549   11.6798   26.6483 H   0  0  0  0  0  0  0  0  0  0  0  0
  -19.2039   13.1259   27.5265 H   0  0  0  0  0  0  0  0  0  0  0  0
  -20.9218   12.3581   26.5159 C   0  0  0  0  0  0  0  0  0  0  0  0
  -21.2189   11.8813   25.5780 H   0  0  0  0  0  0  0  0  0  0  0  0
  -21.4811   13.2967   26.5961 H   0  0  0  0  0  0  0  0  0  0  0  0
  -21.2332   11.7102   27.3418 H   0  0  0  0  0  0  0  0  0  0  0  0
  -19.1436   14.8902   25.6869 C   0  0  0  0  0  0  0  0  0  0  0  0
  -19.4463   15.4097   24.7713 H   0  0  0  0  0  0  0  0  0  0  0  0
  -19.9608   15.0666   26.3980 H   0  0  0  0  0  0  0  0  0  0  0  0
  -17.8649   15.4964   26.2483 C   0  0  0  0  0  0  0  0  0  0  0  0
  -17.0265   15.3815   25.5548 H   0  0  0  0  0  0  0  0  0  0  0  0
  -17.5836   15.0180   27.1916 H   0  0  0  0  0  0  0  0  0  0  0  0
  -18.0051   16.5652   26.4373 H   0  0  0  0  0  0  0  0  0  0  0  0
  -18.4352   12.9134   24.2224 C   0  0  0  0  0  0  0  0  0  0  0  0
  -17.0151   12.7738   24.0122 N   0  0  0  0  0  0  0  0  0  0  0  0
  -15.9822   13.0719   24.8308 N   0  0  0  0  0  0  0  0  0  0  0  0
  -14.9529   12.7368   24.1158 C   0  0  0  0  0  0  0  0  0  0  0  0
  -13.9585   12.8467   24.4736 H   0  0  0  0  0  0  0  0  0  0  0  0
  -15.2186   12.2452   22.9010 N   0  0  0  0  0  0  0  0  0  0  0  0
  -16.5186   12.2673   22.8366 C   0  0  0  0  0  0  0  0  0  0  0  0
  -17.3284   11.8651   21.7881 N   0  0  0  0  0  0  0  0  0  0  0  0
  -18.6092   11.9715   21.9309 C   0  0  0  0  0  0  0  0  0  0  0  0
  -19.5110   11.5407   20.8069 C   0  0  0  0  0  0  0  0  0  0  0  0
  -20.5637   11.6920   21.0565 H   0  0  0  0  0  0  0  0  0  0  0  0
  -19.3450   10.4801   20.5976 H   0  0  0  0  0  0  0  0  0  0  0  0
  -19.2726   12.1218   19.9108 H   0  0  0  0  0  0  0  0  0  0  0  0
  -19.2337   12.5055   23.1698 C   0  0  0  0  0  0  0  0  0  0  0  0
  -20.2829   12.5813   23.2333 H   0  0  0  0  0  0  0  0  0  0  0  0
  1  2  1  0
  1  9  1  0
  1 16  1  0
  2  3  1  0
  2  4  1  0
  2  5  1  0
  5  6  1  0
  5  7  1  0
  5  8  1  0
  9 10  1  0
  9 11  1  0
  9 12  1  0
 12 13  1  0
 12 14  1  0
 12 15  1  0
 16 17  1  0
 16 29  2  0
 17 18  1  0
 17 22  1  0
 18 19  2  0
 19 20  1  0
 19 21  1  0
 21 22  2  0
 22 23  1  0
 23 24  2  0
 24 25  1  0
 24 29  1  0
 25 26  1  0
 25 27  1  0
 25 28  1  0
 29 30  1  0
M  END
$$$$
