
     RDKit          3D

 23 24  0  0  0  0  0  0  0  0999 V2000
  -18.5633   13.4258   28.0664 O   0  0  0  0  0  0  0  0  0  0  0  0
  -18.5004   13.9326   26.9507 C   0  0  0  0  0  0  0  0  0  0  0  0
  -18.8385   13.1276   25.8751 N   0  0  0  0  0  0  0  0  0  0  0  0
  -18.7499   13.4442   24.4538 C   0  0  0  0  0  0  0  0  0  0  0  0
  -19.2901   14.3597   24.2103 H   0  0  0  0  0  0  0  0  0  0  0  0
  -17.6918   13.5689   24.2007 H   0  0  0  0  0  0  0  0  0  0  0  0
  -19.3645   12.2433   23.7442 C   0  0  0  0  0  0  0  0  0  0  0  0
  -20.4442   12.3949   23.6221 H   0  0  0  0  0  0  0  0  0  0  0  0
  -18.9305   12.0709   22.7566 H   0  0  0  0  0  0  0  0  0  0  0  0
  -19.1156   11.0992   24.7149 C   0  0  0  0  0  0  0  0  0  0  0  0
  -18.0831   10.7442   24.6119 H   0  0  0  0  0  0  0  0  0  0  0  0
  -19.7891   10.2518   24.5606 H   0  0  0  0  0  0  0  0  0  0  0  0
  -19.3064   11.7620   26.0691 C   0  0  0  0  0  0  0  0  0  0  0  0
  -18.7539   11.2553   26.8653 H   0  0  0  0  0  0  0  0  0  0  0  0
  -20.3659   11.8096   26.3468 H   0  0  0  0  0  0  0  0  0  0  0  0
  -18.0338   15.2897   26.7407 C   0  0  0  0  0  0  0  0  0  0  0  0
  -16.9102   15.8035   27.3172 C   0  0  0  0  0  0  0  0  0  0  0  0
  -16.1935   15.3651   27.9625 H   0  0  0  0  0  0  0  0  0  0  0  0
  -16.8369   17.0816   26.9125 N   0  0  0  0  0  0  0  0  0  0  0  0
  -16.0889   17.7491   27.1823 H   0  0  0  0  0  0  0  0  0  0  0  0
  -17.8748   17.4225   26.0992 N   0  0  0  0  0  0  0  0  0  0  0  0
  -18.5942   16.3404   26.0098 C   0  0  0  0  0  0  0  0  0  0  0  0
  -19.4968   16.2913   25.4557 H   0  0  0  0  0  0  0  0  0  0  0  0
  1  2  2  0
  2  3  1  0
  2 16  1  0
  3  4  1  0
  3 13  1  0
  4  5  1  0
  4  6  1  0
  4  7  1  0
  7  8  1  0
  7  9  1  0
  7 10  1  0
 10 11  1  0
 10 12  1  0
 10 13  1  0
 13 14  1  0
 13 15  1  0
 16 17  2  0
 16 22  1  0
 17 18  1  0
 17 19  1  0
 19 20  1  0
 19 21  1  0
 21 22  2  0
 22 23  1  0
M  END
$$$$
