
     RDKit          3D

 16 16  0  0  0  0  0  0  0  0999 V2000
  -19.9245   12.2992   26.9768 Br  0  0  0  0  0  0  0  0  0  0  0  0
  -21.6381   12.1839   27.7094 C   0  0  0  0  0  0  0  0  0  0  0  0
  -22.3233   13.1380   28.3732 C   0  0  0  0  0  0  0  0  0  0  0  0
  -22.0787   14.1364   28.6253 H   0  0  0  0  0  0  0  0  0  0  0  0
  -23.5101   12.5761   28.6996 N   0  0  0  0  0  0  0  0  0  0  0  0
  -24.6107   13.1725   29.4306 C   0  0  0  0  0  0  0  0  0  0  0  0
  -24.8190   14.1402   28.9611 H   0  0  0  0  0  0  0  0  0  0  0  0
  -25.4821   12.5226   29.2934 H   0  0  0  0  0  0  0  0  0  0  0  0
  -24.2807   13.3519   30.9040 C   0  0  0  0  0  0  0  0  0  0  0  0
  -25.1607   13.7207   31.4384 H   0  0  0  0  0  0  0  0  0  0  0  0
  -23.4538   14.0535   31.0565 H   0  0  0  0  0  0  0  0  0  0  0  0
  -23.9274   12.0961   31.4759 O   0  0  0  0  0  0  0  0  0  0  0  0
  -24.6828   11.4970   31.3416 H   0  0  0  0  0  0  0  0  0  0  0  0
  -23.6027   11.2921   28.2574 N   0  0  0  0  0  0  0  0  0  0  0  0
  -22.4615   11.0644   27.6607 C   0  0  0  0  0  0  0  0  0  0  0  0
  -22.2151   10.1407   27.2042 H   0  0  0  0  0  0  0  0  0  0  0  0
  1  2  1  0
  2  3  2  0
  2 15  1  0
  3  4  1  0
  3  5  1  0
  5  6  1  0
  5 14  1  0
  6  7  1  0
  6  8  1  0
  6  9  1  0
  9 10  1  0
  9 11  1  0
  9 12  1  0
 12 13  1  0
 14 15  2  0
 15 16  1  0
M  END
$$$$
