
     RDKit          3D

 19 19  0  0  0  0  0  0  0  0999 V2000
  -17.8840   16.7002   27.4175 Br  0  0  0  0  0  0  0  0  0  0  0  0
  -18.4353   15.1566   26.5170 C   0  0  0  0  0  0  0  0  0  0  0  0
  -19.4840   14.4171   26.9716 C   0  0  0  0  0  0  0  0  0  0  0  0
  -20.0156   14.6897   27.8434 H   0  0  0  0  0  0  0  0  0  0  0  0
  -19.9008   13.2379   26.2828 C   0  0  0  0  0  0  0  0  0  0  0  0
  -20.8318   12.5116   26.6540 O   0  0  0  0  0  0  0  0  0  0  0  0
  -19.2057   12.8803   25.1233 N   0  0  0  0  0  0  0  0  0  0  0  0
  -19.6020   11.6832   24.3796 C   0  0  0  0  0  0  0  0  0  0  0  0
  -20.6481   11.4441   24.6074 H   0  0  0  0  0  0  0  0  0  0  0  0
  -19.5754   11.8860   23.3010 H   0  0  0  0  0  0  0  0  0  0  0  0
  -18.7246   10.4783   24.7145 C   0  0  0  0  0  0  0  0  0  0  0  0
  -19.1614    9.5442   24.3466 H   0  0  0  0  0  0  0  0  0  0  0  0
  -18.6038   10.3825   25.7987 H   0  0  0  0  0  0  0  0  0  0  0  0
  -17.4318   10.6324   24.1408 O   0  0  0  0  0  0  0  0  0  0  0  0
  -17.5475   10.6885   23.1752 H   0  0  0  0  0  0  0  0  0  0  0  0
  -18.1312   13.6335   24.6631 C   0  0  0  0  0  0  0  0  0  0  0  0
  -17.6596   13.2784   23.7795 H   0  0  0  0  0  0  0  0  0  0  0  0
  -17.7455   14.7534   25.3392 C   0  0  0  0  0  0  0  0  0  0  0  0
  -16.9283   15.3345   24.9958 H   0  0  0  0  0  0  0  0  0  0  0  0
  1  2  1  0
  2  3  2  0
  2 18  1  0
  3  4  1  0
  3  5  1  0
  5  6  2  0
  5  7  1  0
  7  8  1  0
  7 16  1  0
  8  9  1  0
  8 10  1  0
  8 11  1  0
 11 12  1  0
 11 13  1  0
 11 14  1  0
 14 15  1  0
 16 17  1  0
 16 18  2  0
 18 19  1  0
M  END
$$$$
