
     RDKit          3D

 29 30  0  0  0  0  0  0  0  0999 V2000
  -17.6185   16.8512   27.8665 O   0  0  0  0  0  0  0  0  0  0  0  0
  -17.0104   17.0348   26.8288 C   0  0  0  0  0  0  0  0  0  0  0  0
  -17.1444   16.1758   25.7721 N   0  0  0  0  0  0  0  0  0  0  0  0
  -16.5820   16.4079   24.9453 H   0  0  0  0  0  0  0  0  0  0  0  0
  -17.9393   15.0397   25.6929 C   0  0  0  0  0  0  0  0  0  0  0  0
  -17.9529   14.1104   24.7150 C   0  0  0  0  0  0  0  0  0  0  0  0
  -17.3968   14.0169   23.8210 H   0  0  0  0  0  0  0  0  0  0  0  0
  -18.8947   13.2138   25.1005 N   0  0  0  0  0  0  0  0  0  0  0  0
  -19.3131   12.0169   24.4035 C   0  0  0  0  0  0  0  0  0  0  0  0
  -20.3009   12.2132   23.9711 H   0  0  0  0  0  0  0  0  0  0  0  0
  -18.6133   11.8491   23.5778 H   0  0  0  0  0  0  0  0  0  0  0  0
  -19.3545   10.8054   25.3172 C   0  0  0  0  0  0  0  0  0  0  0  0
  -19.6669    9.9181   24.7582 H   0  0  0  0  0  0  0  0  0  0  0  0
  -18.3697   10.6073   25.7523 H   0  0  0  0  0  0  0  0  0  0  0  0
  -20.0598   10.9559   26.1413 H   0  0  0  0  0  0  0  0  0  0  0  0
  -19.4692   13.5501   26.2934 N   0  0  0  0  0  0  0  0  0  0  0  0
  -18.8814   14.6642   26.6450 C   0  0  0  0  0  0  0  0  0  0  0  0
  -19.1094   15.1888   27.5363 H   0  0  0  0  0  0  0  0  0  0  0  0
  -16.0308   18.2176   26.5685 C   0  0  0  0  0  0  0  0  0  0  0  0
  -16.5160   19.0543   26.0430 H   0  0  0  0  0  0  0  0  0  0  0  0
  -15.2081   18.7356   27.7803 C   0  0  0  0  0  0  0  0  0  0  0  0
  -15.0123   17.9826   28.5514 H   0  0  0  0  0  0  0  0  0  0  0  0
  -15.5916   19.6413   28.2590 H   0  0  0  0  0  0  0  0  0  0  0  0
  -14.0314   18.9496   26.8100 C   0  0  0  0  0  0  0  0  0  0  0  0
  -13.0399   18.7157   27.2051 H   0  0  0  0  0  0  0  0  0  0  0  0
  -14.0108   19.9471   26.3562 H   0  0  0  0  0  0  0  0  0  0  0  0
  -14.6664   17.8736   25.9090 C   0  0  0  0  0  0  0  0  0  0  0  0
  -14.3065   16.8584   26.1149 H   0  0  0  0  0  0  0  0  0  0  0  0
  -14.5994   18.0619   24.8346 H   0  0  0  0  0  0  0  0  0  0  0  0
  1  2  2  0
  2  3  1  0
  2 19  1  0
  3  4  1  0
  3  5  1  0
  5  6  2  0
  5 17  1  0
  6  7  1  0
  6  8  1  0
  8  9  1  0
  8 16  1  0
  9 10  1  0
  9 11  1  0
  9 12  1  0
 12 13  1  0
 12 14  1  0
 12 15  1  0
 16 17  2  0
 17 18  1  0
 19 20  1  0
 19 21  1  0
 19 27  1  0
 21 22  1  0
 21 23  1  0
 21 24  1  0
 24 25  1  0
 24 26  1  0
 24 27  1  0
 27 28  1  0
 27 29  1  0
M  END
$$$$
