
     RDKit          3D

 22 22  0  0  0  0  0  0  0  0999 V2000
  -19.2800   10.0012   24.7966 O   0  0  0  0  0  0  0  0  0  0  0  0
  -20.2527    9.9878   24.7845 H   0  0  0  0  0  0  0  0  0  0  0  0
  -18.8889   11.1477   25.5468 C   0  0  0  0  0  0  0  0  0  0  0  0
  -19.3112   11.0718   26.5547 H   0  0  0  0  0  0  0  0  0  0  0  0
  -17.7967   11.1380   25.6193 H   0  0  0  0  0  0  0  0  0  0  0  0
  -19.3486   12.4202   24.8379 C   0  0  0  0  0  0  0  0  0  0  0  0
  -18.9137   12.4405   23.8311 H   0  0  0  0  0  0  0  0  0  0  0  0
  -20.4401   12.4117   24.7225 H   0  0  0  0  0  0  0  0  0  0  0  0
  -18.9507   13.6667   25.5640 C   0  0  0  0  0  0  0  0  0  0  0  0
  -17.9675   14.5310   25.2261 C   0  0  0  0  0  0  0  0  0  0  0  0
  -17.2801   14.5340   24.4215 H   0  0  0  0  0  0  0  0  0  0  0  0
  -17.9840   15.4996   26.1679 N   0  0  0  0  0  0  0  0  0  0  0  0
  -17.1315   16.6648   26.2613 C   0  0  0  0  0  0  0  0  0  0  0  0
  -16.1633   16.4065   25.8192 H   0  0  0  0  0  0  0  0  0  0  0  0
  -17.5804   17.4553   25.6503 H   0  0  0  0  0  0  0  0  0  0  0  0
  -16.9506   17.1283   27.6957 C   0  0  0  0  0  0  0  0  0  0  0  0
  -16.4992   16.3411   28.3107 H   0  0  0  0  0  0  0  0  0  0  0  0
  -17.9105   17.3960   28.1499 H   0  0  0  0  0  0  0  0  0  0  0  0
  -16.2982   18.0062   27.7320 H   0  0  0  0  0  0  0  0  0  0  0  0
  -18.9443   15.2801   27.1003 N   0  0  0  0  0  0  0  0  0  0  0  0
  -19.5255   14.1723   26.7269 C   0  0  0  0  0  0  0  0  0  0  0  0
  -20.3303   13.7252   27.2574 H   0  0  0  0  0  0  0  0  0  0  0  0
  1  2  1  0
  1  3  1  0
  3  4  1  0
  3  5  1  0
  3  6  1  0
  6  7  1  0
  6  8  1  0
  6  9  1  0
  9 10  2  0
  9 21  1  0
 10 11  1  0
 10 12  1  0
 12 13  1  0
 12 20  1  0
 13 14  1  0
 13 15  1  0
 13 16  1  0
 16 17  1  0
 16 18  1  0
 16 19  1  0
 20 21  2  0
 21 22  1  0
M  END
$$$$
