
     RDKit          3D

 25 26  0  0  0  0  0  0  0  0999 V2000
  -23.0229   12.0280   27.1649 O   0  0  0  0  0  0  0  0  0  0  0  0
  -22.8891   12.9938   27.9133 C   0  0  0  0  0  0  0  0  0  0  0  0
  -21.6898   13.6631   27.9361 N   0  0  0  0  0  0  0  0  0  0  0  0
  -21.6699   14.4570   28.5914 H   0  0  0  0  0  0  0  0  0  0  0  0
  -20.5532   13.3861   27.1979 C   0  0  0  0  0  0  0  0  0  0  0  0
  -20.3651   12.1936   26.5968 C   0  0  0  0  0  0  0  0  0  0  0  0
  -20.9586   11.3196   26.5567 H   0  0  0  0  0  0  0  0  0  0  0  0
  -19.1614   12.3015   25.9817 N   0  0  0  0  0  0  0  0  0  0  0  0
  -18.4789   11.3086   25.1929 C   0  0  0  0  0  0  0  0  0  0  0  0
  -19.0758   10.3941   25.1620 H   0  0  0  0  0  0  0  0  0  0  0  0
  -17.5096   11.1063   25.6554 H   0  0  0  0  0  0  0  0  0  0  0  0
  -18.3469   11.7023   24.1820 H   0  0  0  0  0  0  0  0  0  0  0  0
  -18.5884   13.5192   26.1764 N   0  0  0  0  0  0  0  0  0  0  0  0
  -19.4411   14.1798   26.9192 C   0  0  0  0  0  0  0  0  0  0  0  0
  -19.2855   15.1745   27.2485 H   0  0  0  0  0  0  0  0  0  0  0  0
  -23.9165   13.5034   28.7990 C   0  0  0  0  0  0  0  0  0  0  0  0
  -23.6880   14.4676   29.6553 N   0  0  0  0  0  0  0  0  0  0  0  0
  -24.8254   14.6932   30.3064 O   0  0  0  0  0  0  0  0  0  0  0  0
  -25.7869   13.8735   29.8695 C   0  0  0  0  0  0  0  0  0  0  0  0
  -27.1125   13.9996   30.4953 C   0  0  0  0  0  0  0  0  0  0  0  0
  -27.8183   13.2792   30.0708 H   0  0  0  0  0  0  0  0  0  0  0  0
  -27.5161   15.0046   30.3384 H   0  0  0  0  0  0  0  0  0  0  0  0
  -27.0482   13.8188   31.5722 H   0  0  0  0  0  0  0  0  0  0  0  0
  -25.2492   13.1034   28.9150 C   0  0  0  0  0  0  0  0  0  0  0  0
  -25.7344   12.3446   28.3578 H   0  0  0  0  0  0  0  0  0  0  0  0
  1  2  2  0
  2  3  1  0
  2 16  1  0
  3  4  1  0
  3  5  1  0
  5  6  2  0
  5 14  1  0
  6  7  1  0
  6  8  1  0
  8  9  1  0
  8 13  1  0
  9 10  1  0
  9 11  1  0
  9 12  1  0
 13 14  2  0
 14 15  1  0
 16 17  2  0
 16 24  1  0
 17 18  1  0
 18 19  1  0
 19 20  1  0
 19 24  2  0
 20 21  1  0
 20 22  1  0
 20 23  1  0
 24 25  1  0
M  END
$$$$
