
     RDKit          3D

 29 30  0  0  0  0  0  0  0  0999 V2000
  -22.7293   12.8177   26.2093 O   0  0  0  0  0  0  0  0  0  0  0  0
  -22.1737   12.2652   27.1407 C   0  0  0  0  0  0  0  0  0  0  0  0
  -20.8685   12.3834   27.2859 N   0  0  0  0  0  0  0  0  0  0  0  0
  -20.3860   12.9211   26.5836 H   0  0  0  0  0  0  0  0  0  0  0  0
  -20.3684   11.9071   28.0155 H   0  0  0  0  0  0  0  0  0  0  0  0
  -22.8784   11.3998   28.1528 C   0  0  0  0  0  0  0  0  0  0  0  0
  -23.9404   11.3978   27.8780 H   0  0  0  0  0  0  0  0  0  0  0  0
  -22.5090   10.3720   28.0748 H   0  0  0  0  0  0  0  0  0  0  0  0
  -22.7280   11.9305   29.5722 C   0  0  0  0  0  0  0  0  0  0  0  0
  -22.1528   12.8638   29.5488 H   0  0  0  0  0  0  0  0  0  0  0  0
  -22.1720   11.2474   30.2217 H   0  0  0  0  0  0  0  0  0  0  0  0
  -24.0282   12.2452   30.1932 N   0  0  0  0  0  0  0  0  0  0  0  0
  -24.5537   11.6239   31.2435 C   0  0  0  0  0  0  0  0  0  0  0  0
  -23.9710   10.4857   32.0072 C   0  0  0  0  0  0  0  0  0  0  0  0
  -24.6542   10.2445   32.8230 H   0  0  0  0  0  0  0  0  0  0  0  0
  -23.0036   10.8035   32.3933 H   0  0  0  0  0  0  0  0  0  0  0  0
  -23.8774    9.6449   31.3185 H   0  0  0  0  0  0  0  0  0  0  0  0
  -25.7110   12.1858   31.5107 N   0  0  0  0  0  0  0  0  0  0  0  0
  -26.3263   11.8863   32.2846 H   0  0  0  0  0  0  0  0  0  0  0  0
  -25.9969   13.1792   30.6108 C   0  0  0  0  0  0  0  0  0  0  0  0
  -24.9288   13.2247   29.7471 C   0  0  0  0  0  0  0  0  0  0  0  0
  -24.9015   14.1212   28.6737 C   0  0  0  0  0  0  0  0  0  0  0  0
  -24.0882   14.1477   27.9966 H   0  0  0  0  0  0  0  0  0  0  0  0
  -25.9864   14.9789   28.5245 C   0  0  0  0  0  0  0  0  0  0  0  0
  -26.0006   15.6769   27.7239 H   0  0  0  0  0  0  0  0  0  0  0  0
  -27.0798   14.9351   29.4252 C   0  0  0  0  0  0  0  0  0  0  0  0
  -27.8935   15.6037   29.2857 H   0  0  0  0  0  0  0  0  0  0  0  0
  -27.0969   14.0305   30.4814 C   0  0  0  0  0  0  0  0  0  0  0  0
  -27.9110   13.9846   31.1581 H   0  0  0  0  0  0  0  0  0  0  0  0
  1  2  2  0
  2  3  1  0
  2  6  1  0
  3  4  1  0
  3  5  1  0
  6  7  1  0
  6  8  1  0
  6  9  1  0
  9 10  1  0
  9 11  1  0
  9 12  1  0
 12 13  2  0
 12 21  1  0
 13 14  1  0
 13 18  1  0
 14 15  1  0
 14 16  1  0
 14 17  1  0
 18 19  1  0
 18 20  1  0
 20 21  1  0
 20 28  2  0
 21 22  2  0
 22 23  1  0
 22 24  1  0
 24 25  1  0
 24 26  2  0
 26 27  1  0
 26 28  1  0
 28 29  1  0
M  END
$$$$
