
     RDKit          3D

 24 25  0  0  0  0  0  0  0  0999 V2000
  -20.9098   19.2006   30.2663 F   0  0  0  0  0  0  0  0  0  0  0  0
  -20.7559   19.4490   28.9579 C   0  0  0  0  0  0  0  0  0  0  0  0
  -21.8387   19.3793   28.0623 C   0  0  0  0  0  0  0  0  0  0  0  0
  -23.1321   19.0127   28.4122 N   0  0  0  0  0  0  0  0  0  0  0  0
  -23.8779   19.2931   27.7844 H   0  0  0  0  0  0  0  0  0  0  0  0
  -23.5670   18.2706   29.5797 C   0  0  0  0  0  0  0  0  0  0  0  0
  -22.7738   17.6978   30.0620 H   0  0  0  0  0  0  0  0  0  0  0  0
  -23.9139   18.9954   30.3261 H   0  0  0  0  0  0  0  0  0  0  0  0
  -24.6719   17.3281   29.2646 C   0  0  0  0  0  0  0  0  0  0  0  0
  -25.1758   16.4896   30.1987 N   0  0  0  0  0  0  0  0  0  0  0  0
  -24.8279   16.4201   31.1760 H   0  0  0  0  0  0  0  0  0  0  0  0
  -26.1834   15.7200   29.7106 N   0  0  0  0  0  0  0  0  0  0  0  0
  -26.3059   16.0857   28.4633 C   0  0  0  0  0  0  0  0  0  0  0  0
  -27.0185   15.6646   27.8003 H   0  0  0  0  0  0  0  0  0  0  0  0
  -25.3884   17.0799   28.1452 C   0  0  0  0  0  0  0  0  0  0  0  0
  -25.2747   17.5519   27.2024 H   0  0  0  0  0  0  0  0  0  0  0  0
  -21.6164   19.6875   26.7184 C   0  0  0  0  0  0  0  0  0  0  0  0
  -22.4217   19.6609   26.0302 H   0  0  0  0  0  0  0  0  0  0  0  0
  -20.3354   20.0227   26.2842 C   0  0  0  0  0  0  0  0  0  0  0  0
  -20.1707   20.2510   25.2606 H   0  0  0  0  0  0  0  0  0  0  0  0
  -19.2669   20.0670   27.1817 C   0  0  0  0  0  0  0  0  0  0  0  0
  -18.2973   20.3255   26.8387 H   0  0  0  0  0  0  0  0  0  0  0  0
  -19.4790   19.7827   28.5294 C   0  0  0  0  0  0  0  0  0  0  0  0
  -18.6794   19.8247   29.2236 H   0  0  0  0  0  0  0  0  0  0  0  0
  1  2  1  0
  2  3  1  0
  2 23  2  0
  3  4  1  0
  3 17  2  0
  4  5  1  0
  4  6  1  0
  6  7  1  0
  6  8  1  0
  6  9  1  0
  9 10  1  0
  9 15  2  0
 10 11  1  0
 10 12  1  0
 12 13  2  0
 13 14  1  0
 13 15  1  0
 15 16  1  0
 17 18  1  0
 17 19  1  0
 19 20  1  0
 19 21  2  0
 21 22  1  0
 21 23  1  0
 23 24  1  0
M  END
$$$$
