
     RDKit          3D

 25 27  0  0  0  0  0  0  0  0999 V2000
  -21.2112   14.4451   28.2600 O   0  0  0  0  0  0  0  0  0  0  0  0
  -21.0864   13.5726   27.4027 C   0  0  0  0  0  0  0  0  0  0  0  0
  -22.0118   12.5736   27.3502 N   0  0  0  0  0  0  0  0  0  0  0  0
  -21.8677   11.8750   26.6026 H   0  0  0  0  0  0  0  0  0  0  0  0
  -23.1261   12.4507   28.2293 C   0  0  0  0  0  0  0  0  0  0  0  0
  -23.3087   13.3514   28.8108 H   0  0  0  0  0  0  0  0  0  0  0  0
  -23.4256   11.1429   28.9107 C   0  0  0  0  0  0  0  0  0  0  0  0
  -22.8045   10.2839   28.6881 H   0  0  0  0  0  0  0  0  0  0  0  0
  -23.7880   11.1783   29.9314 H   0  0  0  0  0  0  0  0  0  0  0  0
  -24.3325   11.6482   27.8277 C   0  0  0  0  0  0  0  0  0  0  0  0
  -25.3061   12.0295   28.1108 H   0  0  0  0  0  0  0  0  0  0  0  0
  -24.3145   11.1393   26.8707 H   0  0  0  0  0  0  0  0  0  0  0  0
  -20.0206   13.5327   26.4285 C   0  0  0  0  0  0  0  0  0  0  0  0
  -19.6165   12.4325   25.7145 C   0  0  0  0  0  0  0  0  0  0  0  0
  -18.5859   12.8924   24.9293 N   0  0  0  0  0  0  0  0  0  0  0  0
  -18.3288   14.2148   25.1119 N   0  0  0  0  0  0  0  0  0  0  0  0
  -19.2018   14.5838   26.0182 C   0  0  0  0  0  0  0  0  0  0  0  0
  -19.2674   15.5765   26.3892 H   0  0  0  0  0  0  0  0  0  0  0  0
  -17.9060   12.0431   24.0473 C   0  0  0  0  0  0  0  0  0  0  0  0
  -17.1265   12.4880   23.4854 H   0  0  0  0  0  0  0  0  0  0  0  0
  -18.3275   10.7416   24.0172 C   0  0  0  0  0  0  0  0  0  0  0  0
  -17.8630   10.0375   23.3775 H   0  0  0  0  0  0  0  0  0  0  0  0
  -19.4069   10.3000   24.8515 C   0  0  0  0  0  0  0  0  0  0  0  0
  -19.7154    9.2869   24.8108 H   0  0  0  0  0  0  0  0  0  0  0  0
  -20.0373   11.0965   25.6713 N   0  0  0  0  0  0  0  0  0  0  0  0
  1  2  2  0
  2  3  1  0
  2 13  1  0
  3  4  1  0
  3  5  1  0
  5  6  1  0
  5  7  1  0
  5 10  1  0
  7  8  1  0
  7  9  1  0
  7 10  1  0
 10 11  1  0
 10 12  1  0
 13 14  2  0
 13 17  1  0
 14 15  1  0
 14 25  1  0
 15 16  1  0
 15 19  1  0
 16 17  2  0
 17 18  1  0
 19 20  1  0
 19 21  2  0
 21 22  1  0
 21 23  1  0
 23 24  1  0
 23 25  2  0
M  END
$$$$
