
     RDKit          3D

 27 28  0  0  0  0  0  0  0  0999 V2000
  -19.3003   17.4084   26.8690 F   0  0  0  0  0  0  0  0  0  0  0  0
  -18.0040   17.7481   26.9537 C   0  0  0  0  0  0  0  0  0  0  0  0
  -16.9988   16.8982   26.4503 C   0  0  0  0  0  0  0  0  0  0  0  0
  -17.2557   15.6780   25.8381 N   0  0  0  0  0  0  0  0  0  0  0  0
  -16.4916   15.1893   25.3867 H   0  0  0  0  0  0  0  0  0  0  0  0
  -18.5569   15.0335   25.8023 C   0  0  0  0  0  0  0  0  0  0  0  0
  -18.9566   14.9655   26.8215 H   0  0  0  0  0  0  0  0  0  0  0  0
  -19.2558   15.6464   25.2206 H   0  0  0  0  0  0  0  0  0  0  0  0
  -18.5408   13.6574   25.2097 C   0  0  0  0  0  0  0  0  0  0  0  0
  -19.1609   12.5188   25.7202 C   0  0  0  0  0  0  0  0  0  0  0  0
  -19.9692   12.3822   26.9556 C   0  0  0  0  0  0  0  0  0  0  0  0
  -20.7716   13.1273   26.9744 H   0  0  0  0  0  0  0  0  0  0  0  0
  -19.3407   12.5310   27.8400 H   0  0  0  0  0  0  0  0  0  0  0  0
  -20.4304   11.3919   27.0312 H   0  0  0  0  0  0  0  0  0  0  0  0
  -18.9532   11.4893   24.9485 N   0  0  0  0  0  0  0  0  0  0  0  0
  -18.1970   11.9614   23.9274 N   0  0  0  0  0  0  0  0  0  0  0  0
  -17.8715   11.3619   23.1460 H   0  0  0  0  0  0  0  0  0  0  0  0
  -17.9351   13.2775   24.0608 C   0  0  0  0  0  0  0  0  0  0  0  0
  -17.3614   13.8174   23.3540 H   0  0  0  0  0  0  0  0  0  0  0  0
  -15.6675   17.3050   26.5562 C   0  0  0  0  0  0  0  0  0  0  0  0
  -14.8972   16.6896   26.1717 H   0  0  0  0  0  0  0  0  0  0  0  0
  -15.3544   18.5189   27.1658 C   0  0  0  0  0  0  0  0  0  0  0  0
  -14.3411   18.8215   27.2465 H   0  0  0  0  0  0  0  0  0  0  0  0
  -16.3615   19.3447   27.6707 C   0  0  0  0  0  0  0  0  0  0  0  0
  -16.1109   20.2659   28.1320 H   0  0  0  0  0  0  0  0  0  0  0  0
  -17.6953   18.9567   27.5617 C   0  0  0  0  0  0  0  0  0  0  0  0
  -18.4697   19.5773   27.9349 H   0  0  0  0  0  0  0  0  0  0  0  0
  1  2  1  0
  2  3  1  0
  2 26  2  0
  3  4  1  0
  3 20  2  0
  4  5  1  0
  4  6  1  0
  6  7  1  0
  6  8  1  0
  6  9  1  0
  9 10  1  0
  9 18  2  0
 10 11  1  0
 10 15  2  0
 11 12  1  0
 11 13  1  0
 11 14  1  0
 15 16  1  0
 16 17  1  0
 16 18  1  0
 18 19  1  0
 20 21  1  0
 20 22  1  0
 22 23  1  0
 22 24  2  0
 24 25  1  0
 24 26  1  0
 26 27  1  0
M  END
$$$$
