
     RDKit          3D

 26 27  0  0  0  0  0  0  0  0999 V2000
  -23.1048   11.7219   29.9721 O   0  0  0  0  0  0  0  0  0  0  0  0
  -23.9079   12.6446   29.7840 C   0  0  0  0  0  0  0  0  0  0  0  0
  -24.1751   13.0743   28.4770 N   0  0  0  0  0  0  0  0  0  0  0  0
  -23.5398   12.4275   27.3319 C   0  0  0  0  0  0  0  0  0  0  0  0
  -23.8380   11.3724   27.3177 H   0  0  0  0  0  0  0  0  0  0  0  0
  -23.8999   12.8825   26.4027 H   0  0  0  0  0  0  0  0  0  0  0  0
  -22.0686   12.5446   27.4384 C   0  0  0  0  0  0  0  0  0  0  0  0
  -21.5762   13.6877   27.9209 O   0  0  0  0  0  0  0  0  0  0  0  0
  -20.2378   13.6412   27.9421 N   0  0  0  0  0  0  0  0  0  0  0  0
  -19.8898   12.4895   27.4816 C   0  0  0  0  0  0  0  0  0  0  0  0
  -18.4673   12.1057   27.3731 C   0  0  0  0  0  0  0  0  0  0  0  0
  -18.3502   11.1902   26.7836 H   0  0  0  0  0  0  0  0  0  0  0  0
  -18.0432   11.9241   28.3664 H   0  0  0  0  0  0  0  0  0  0  0  0
  -17.8845   12.8947   26.8867 H   0  0  0  0  0  0  0  0  0  0  0  0
  -21.0207   11.7597   27.1446 C   0  0  0  0  0  0  0  0  0  0  0  0
  -21.0573   10.7832   26.7361 H   0  0  0  0  0  0  0  0  0  0  0  0
  -25.0419   14.1085   28.1881 N   0  0  0  0  0  0  0  0  0  0  0  0
  -25.6553   14.7300   29.1465 C   0  0  0  0  0  0  0  0  0  0  0  0
  -26.5925   15.8547   28.8087 C   0  0  0  0  0  0  0  0  0  0  0  0
  -27.3547   15.4933   28.1109 H   0  0  0  0  0  0  0  0  0  0  0  0
  -26.0281   16.6621   28.3318 H   0  0  0  0  0  0  0  0  0  0  0  0
  -27.0876   16.2472   29.7002 H   0  0  0  0  0  0  0  0  0  0  0  0
  -25.4510   14.3594   30.5075 C   0  0  0  0  0  0  0  0  0  0  0  0
  -25.9695   14.8841   31.2681 H   0  0  0  0  0  0  0  0  0  0  0  0
  -24.5999   13.3405   30.8207 C   0  0  0  0  0  0  0  0  0  0  0  0
  -24.4266   13.0413   31.8206 H   0  0  0  0  0  0  0  0  0  0  0  0
  1  2  2  0
  2  3  1  0
  2 25  1  0
  3  4  1  0
  3 17  1  0
  4  5  1  0
  4  6  1  0
  4  7  1  0
  7  8  1  0
  7 15  2  0
  8  9  1  0
  9 10  2  0
 10 11  1  0
 10 15  1  0
 11 12  1  0
 11 13  1  0
 11 14  1  0
 15 16  1  0
 17 18  2  0
 18 19  1  0
 18 23  1  0
 19 20  1  0
 19 21  1  0
 19 22  1  0
 23 24  1  0
 23 25  2  0
 25 26  1  0
M  END
$$$$
