
     RDKit          3D

 16 16  0  0  0  0  0  0  0  0999 V2000
  -25.7846   16.8204   29.2099 O   0  0  0  0  0  0  0  0  0  0  0  0
  -24.7254   15.8927   29.4456 C   0  0  0  0  0  0  0  0  0  0  0  0
  -23.7603   16.3841   29.2711 H   0  0  0  0  0  0  0  0  0  0  0  0
  -24.7590   15.5383   30.4822 H   0  0  0  0  0  0  0  0  0  0  0  0
  -24.8966   14.7592   28.4927 C   0  0  0  0  0  0  0  0  0  0  0  0
  -24.0773   13.2740   28.7325 S   0  0  0  0  0  0  0  0  0  0  0  0
  -24.8251   12.7489   27.2977 C   0  0  0  0  0  0  0  0  0  0  0  0
  -24.6011   11.5088   26.8312 N   0  0  0  0  0  0  0  0  0  0  0  0
  -23.9940   10.8534   27.3072 H   0  0  0  0  0  0  0  0  0  0  0  0
  -25.0461   11.1967   25.9765 H   0  0  0  0  0  0  0  0  0  0  0  0
  -25.5954   13.6118   26.7127 N   0  0  0  0  0  0  0  0  0  0  0  0
  -25.6325   14.7938   27.4227 N   0  0  0  0  0  0  0  0  0  0  0  0
  -25.5002   17.6697   28.1072 C   0  0  0  0  0  0  0  0  0  0  0  0
  -26.3417   18.3555   27.9748 H   0  0  0  0  0  0  0  0  0  0  0  0
  -25.3811   17.0826   27.1917 H   0  0  0  0  0  0  0  0  0  0  0  0
  -24.5976   18.2577   28.2992 H   0  0  0  0  0  0  0  0  0  0  0  0
  1  2  1  0
  1 13  1  0
  2  3  1  0
  2  4  1  0
  2  5  1  0
  5  6  1  0
  5 12  2  0
  6  7  1  0
  7  8  1  0
  7 11  2  0
  8  9  1  0
  8 10  1  0
 11 12  1  0
 13 14  1  0
 13 15  1  0
 13 16  1  0
M  END
$$$$
