
     RDKit          3D

 19 19  0  0  0  0  0  0  0  0999 V2000
  -22.2405   12.1278   29.6692 Br  0  0  0  0  0  0  0  0  0  0  0  0
  -21.1233   12.3397   28.1843 C   0  0  0  0  0  0  0  0  0  0  0  0
  -21.6395   12.5823   26.9482 C   0  0  0  0  0  0  0  0  0  0  0  0
  -22.6816   12.6568   26.7895 H   0  0  0  0  0  0  0  0  0  0  0  0
  -20.7837   12.7413   25.8164 C   0  0  0  0  0  0  0  0  0  0  0  0
  -21.1891   12.9435   24.6645 O   0  0  0  0  0  0  0  0  0  0  0  0
  -19.4037   12.6534   26.0252 N   0  0  0  0  0  0  0  0  0  0  0  0
  -18.4869   12.8172   24.8957 C   0  0  0  0  0  0  0  0  0  0  0  0
  -17.5395   12.3123   25.1209 H   0  0  0  0  0  0  0  0  0  0  0  0
  -18.8881   12.3069   24.0103 H   0  0  0  0  0  0  0  0  0  0  0  0
  -18.2134   14.2870   24.5822 C   0  0  0  0  0  0  0  0  0  0  0  0
  -17.5137   14.7306   25.2980 H   0  0  0  0  0  0  0  0  0  0  0  0
  -19.1417   14.8665   24.6244 H   0  0  0  0  0  0  0  0  0  0  0  0
  -17.6711   14.4217   23.2737 O   0  0  0  0  0  0  0  0  0  0  0  0
  -17.6680   15.3714   23.0571 H   0  0  0  0  0  0  0  0  0  0  0  0
  -18.8781   12.4000   27.2874 C   0  0  0  0  0  0  0  0  0  0  0  0
  -17.8187   12.3415   27.3462 H   0  0  0  0  0  0  0  0  0  0  0  0
  -19.7134   12.2455   28.3544 C   0  0  0  0  0  0  0  0  0  0  0  0
  -19.3222   12.0530   29.3205 H   0  0  0  0  0  0  0  0  0  0  0  0
  1  2  1  0
  2  3  2  0
  2 18  1  0
  3  4  1  0
  3  5  1  0
  5  6  2  0
  5  7  1  0
  7  8  1  0
  7 16  1  0
  8  9  1  0
  8 10  1  0
  8 11  1  0
 11 12  1  0
 11 13  1  0
 11 14  1  0
 14 15  1  0
 16 17  1  0
 16 18  2  0
 18 19  1  0
M  END
$$$$
