
     RDKit          3D

 30 31  0  0  0  0  0  0  0  0999 V2000
  -25.0001   12.5317   29.7277 F   0  0  0  0  0  0  0  0  0  0  0  0
  -23.8417   12.5337   29.0523 C   0  0  0  0  0  0  0  0  0  0  0  0
  -23.8571   12.8263   27.6938 C   0  0  0  0  0  0  0  0  0  0  0  0
  -24.7718   13.0398   27.2053 H   0  0  0  0  0  0  0  0  0  0  0  0
  -22.6552   12.8271   26.9934 C   0  0  0  0  0  0  0  0  0  0  0  0
  -22.6414   13.0274   25.9549 H   0  0  0  0  0  0  0  0  0  0  0  0
  -21.4564   12.5406   27.6611 C   0  0  0  0  0  0  0  0  0  0  0  0
  -20.2561   12.5395   26.9623 N   0  0  0  0  0  0  0  0  0  0  0  0
  -19.3672   11.3700   26.9389 C   0  0  0  0  0  0  0  0  0  0  0  0
  -18.4466   11.6122   27.4836 H   0  0  0  0  0  0  0  0  0  0  0  0
  -19.8155   10.4919   27.4168 H   0  0  0  0  0  0  0  0  0  0  0  0
  -19.0392   10.9996   25.4840 C   0  0  0  0  0  0  0  0  0  0  0  0
  -19.9454   10.6471   24.9766 H   0  0  0  0  0  0  0  0  0  0  0  0
  -18.3184   10.1756   25.4674 H   0  0  0  0  0  0  0  0  0  0  0  0
  -18.5533   12.1536   24.7163 N   0  0  0  0  0  0  0  0  0  0  0  0
  -17.3553   12.0564   24.0628 C   0  0  0  0  0  0  0  0  0  0  0  0
  -16.5705   11.1353   24.2130 O   0  0  0  0  0  0  0  0  0  0  0  0
  -17.0669   13.0392   23.2061 N   0  0  0  0  0  0  0  0  0  0  0  0
  -16.0986   13.3734   23.2553 H   0  0  0  0  0  0  0  0  0  0  0  0
  -17.5233   12.9879   22.2928 H   0  0  0  0  0  0  0  0  0  0  0  0
  -19.4447   13.3264   24.7661 C   0  0  0  0  0  0  0  0  0  0  0  0
  -19.0014   14.1945   24.2740 H   0  0  0  0  0  0  0  0  0  0  0  0
  -20.3582   13.0561   24.2246 H   0  0  0  0  0  0  0  0  0  0  0  0
  -19.7764   13.7114   26.2177 C   0  0  0  0  0  0  0  0  0  0  0  0
  -20.4835   14.5477   26.2263 H   0  0  0  0  0  0  0  0  0  0  0  0
  -18.8657   14.0753   26.7103 H   0  0  0  0  0  0  0  0  0  0  0  0
  -21.4633   12.2431   29.0339 C   0  0  0  0  0  0  0  0  0  0  0  0
  -20.5629   12.0331   29.5454 H   0  0  0  0  0  0  0  0  0  0  0  0
  -22.6662   12.2417   29.7334 C   0  0  0  0  0  0  0  0  0  0  0  0
  -22.6941   12.0245   30.7691 H   0  0  0  0  0  0  0  0  0  0  0  0
  1  2  1  0
  2  3  1  0
  2 29  2  0
  3  4  1  0
  3  5  2  0
  5  6  1  0
  5  7  1  0
  7  8  1  0
  7 27  2  0
  8  9  1  0
  8 24  1  0
  9 10  1  0
  9 11  1  0
  9 12  1  0
 12 13  1  0
 12 14  1  0
 12 15  1  0
 15 16  1  0
 15 21  1  0
 16 17  2  0
 16 18  1  0
 18 19  1  0
 18 20  1  0
 21 22  1  0
 21 23  1  0
 21 24  1  0
 24 25  1  0
 24 26  1  0
 27 28  1  0
 27 29  1  0
 29 30  1  0
M  END
$$$$
