
     RDKit          3D

 32 33  0  0  0  0  0  0  0  0999 V2000
  -15.9086   15.9531   27.4986 O   0  0  0  0  0  0  0  0  0  0  0  0
  -16.2042   16.2440   26.3490 C   0  0  0  0  0  0  0  0  0  0  0  0
  -15.5293   17.1219   25.5610 O   0  0  0  0  0  0  0  0  0  0  0  0
  -14.5351   17.8870   26.2461 C   0  0  0  0  0  0  0  0  0  0  0  0
  -13.7804   17.2281   26.6857 H   0  0  0  0  0  0  0  0  0  0  0  0
  -14.9994   18.5131   27.0153 H   0  0  0  0  0  0  0  0  0  0  0  0
  -14.0469   18.5379   25.5163 H   0  0  0  0  0  0  0  0  0  0  0  0
  -17.2781   15.7626   25.6651 N   0  0  0  0  0  0  0  0  0  0  0  0
  -17.3955   16.1836   24.7388 H   0  0  0  0  0  0  0  0  0  0  0  0
  -18.2306   14.7977   26.0587 C   0  0  0  0  0  0  0  0  0  0  0  0
  -19.1392   15.0004   27.1002 C   0  0  0  0  0  0  0  0  0  0  0  0
  -19.1394   15.9046   27.6487 H   0  0  0  0  0  0  0  0  0  0  0  0
  -20.0453   13.9955   27.4218 C   0  0  0  0  0  0  0  0  0  0  0  0
  -20.7335   14.1497   28.2135 H   0  0  0  0  0  0  0  0  0  0  0  0
  -20.0512   12.7900   26.7173 C   0  0  0  0  0  0  0  0  0  0  0  0
  -21.0253   11.6938   27.0868 C   0  0  0  0  0  0  0  0  0  0  0  0
  -20.5217   10.9643   27.7349 H   0  0  0  0  0  0  0  0  0  0  0  0
  -21.3014   11.1220   26.1909 H   0  0  0  0  0  0  0  0  0  0  0  0
  -22.2734   12.2038   27.7616 C   0  0  0  0  0  0  0  0  0  0  0  0
  -23.2604   12.8715   27.0460 C   0  0  0  0  0  0  0  0  0  0  0  0
  -23.1626   13.0207   26.0028 H   0  0  0  0  0  0  0  0  0  0  0  0
  -24.3886   13.3497   27.7046 C   0  0  0  0  0  0  0  0  0  0  0  0
  -25.1461   13.8615   27.1658 H   0  0  0  0  0  0  0  0  0  0  0  0
  -24.5586   13.1882   29.0150 N   0  0  0  0  0  0  0  0  0  0  0  0
  -23.6250   12.5540   29.7219 C   0  0  0  0  0  0  0  0  0  0  0  0
  -23.7821   12.4412   30.7654 H   0  0  0  0  0  0  0  0  0  0  0  0
  -22.4718   12.0509   29.1284 C   0  0  0  0  0  0  0  0  0  0  0  0
  -21.7472   11.5571   29.7233 H   0  0  0  0  0  0  0  0  0  0  0  0
  -19.1291   12.5948   25.6860 C   0  0  0  0  0  0  0  0  0  0  0  0
  -19.1198   11.6830   25.1462 H   0  0  0  0  0  0  0  0  0  0  0  0
  -18.2186   13.5931   25.3561 C   0  0  0  0  0  0  0  0  0  0  0  0
  -17.5249   13.4412   24.5703 H   0  0  0  0  0  0  0  0  0  0  0  0
  1  2  2  0
  2  3  1  0
  2  8  1  0
  3  4  1  0
  4  5  1  0
  4  6  1  0
  4  7  1  0
  8  9  1  0
  8 10  1  0
 10 11  1  0
 10 31  2  0
 11 12  1  0
 11 13  2  0
 13 14  1  0
 13 15  1  0
 15 16  1  0
 15 29  2  0
 16 17  1  0
 16 18  1  0
 16 19  1  0
 19 20  1  0
 19 27  2  0
 20 21  1  0
 20 22  2  0
 22 23  1  0
 22 24  1  0
 24 25  2  0
 25 26  1  0
 25 27  1  0
 27 28  1  0
 29 30  1  0
 29 31  1  0
 31 32  1  0
M  END
$$$$
