
     RDKit          3D

 28 29  0  0  0  0  0  0  0  0999 V2000
  -24.0350   13.3698   33.7562 O   0  0  0  0  0  0  0  0  0  0  0  0
  -23.5619   13.2739   32.6359 C   0  0  0  0  0  0  0  0  0  0  0  0
  -23.4294   14.3549   31.8933 N   0  0  0  0  0  0  0  0  0  0  0  0
  -23.7350   15.2222   32.3027 H   0  0  0  0  0  0  0  0  0  0  0  0
  -23.0473   14.3076   30.9651 H   0  0  0  0  0  0  0  0  0  0  0  0
  -23.1007   11.9824   32.0145 C   0  0  0  0  0  0  0  0  0  0  0  0
  -22.0934   12.1291   31.6094 H   0  0  0  0  0  0  0  0  0  0  0  0
  -23.0306   11.2260   32.8054 H   0  0  0  0  0  0  0  0  0  0  0  0
  -24.0581   11.5312   30.9195 C   0  0  0  0  0  0  0  0  0  0  0  0
  -25.0474   11.2999   31.3291 H   0  0  0  0  0  0  0  0  0  0  0  0
  -23.7035   10.6147   30.4319 H   0  0  0  0  0  0  0  0  0  0  0  0
  -24.2116   12.5436   29.8917 N   0  0  0  0  0  0  0  0  0  0  0  0
  -23.4155   12.7238   28.7842 C   0  0  0  0  0  0  0  0  0  0  0  0
  -22.2328   11.8753   28.4806 C   0  0  0  0  0  0  0  0  0  0  0  0
  -21.8135   12.1397   27.5053 H   0  0  0  0  0  0  0  0  0  0  0  0
  -22.5073   10.8172   28.4520 H   0  0  0  0  0  0  0  0  0  0  0  0
  -21.4516   12.0206   29.2329 H   0  0  0  0  0  0  0  0  0  0  0  0
  -23.8247   13.7083   28.0553 N   0  0  0  0  0  0  0  0  0  0  0  0
  -24.9360   14.2107   28.6952 C   0  0  0  0  0  0  0  0  0  0  0  0
  -25.1889   13.4930   29.8466 C   0  0  0  0  0  0  0  0  0  0  0  0
  -26.2618   13.7814   30.7027 C   0  0  0  0  0  0  0  0  0  0  0  0
  -26.4312   13.2173   31.5834 H   0  0  0  0  0  0  0  0  0  0  0  0
  -27.0944   14.8346   30.3570 C   0  0  0  0  0  0  0  0  0  0  0  0
  -27.9161   15.0857   30.9756 H   0  0  0  0  0  0  0  0  0  0  0  0
  -26.8540   15.5802   29.1804 C   0  0  0  0  0  0  0  0  0  0  0  0
  -27.5007   16.3834   28.9307 H   0  0  0  0  0  0  0  0  0  0  0  0
  -25.7825   15.2737   28.3526 C   0  0  0  0  0  0  0  0  0  0  0  0
  -25.5931   15.8262   27.4713 H   0  0  0  0  0  0  0  0  0  0  0  0
  1  2  2  0
  2  3  1  0
  2  6  1  0
  3  4  1  0
  3  5  1  0
  6  7  1  0
  6  8  1  0
  6  9  1  0
  9 10  1  0
  9 11  1  0
  9 12  1  0
 12 13  1  0
 12 20  1  0
 13 14  1  0
 13 18  2  0
 14 15  1  0
 14 16  1  0
 14 17  1  0
 18 19  1  0
 19 20  1  0
 19 27  2  0
 20 21  2  0
 21 22  1  0
 21 23  1  0
 23 24  1  0
 23 25  2  0
 25 26  1  0
 25 27  1  0
 27 28  1  0
M  END
$$$$
