
     RDKit          3D

 24 25  0  0  0  0  0  0  0  0999 V2000
  -19.8309   14.4801   27.5359 F   0  0  0  0  0  0  0  0  0  0  0  0
  -19.4371   13.6380   26.5681 C   0  0  0  0  0  0  0  0  0  0  0  0
  -18.5686   14.0715   25.5463 C   0  0  0  0  0  0  0  0  0  0  0  0
  -18.0660   15.3574   25.4608 N   0  0  0  0  0  0  0  0  0  0  0  0
  -17.8829   15.7848   24.5579 H   0  0  0  0  0  0  0  0  0  0  0  0
  -17.7476   16.2185   26.5907 C   0  0  0  0  0  0  0  0  0  0  0  0
  -18.5107   17.0027   26.6739 H   0  0  0  0  0  0  0  0  0  0  0  0
  -17.7672   15.6262   27.5132 H   0  0  0  0  0  0  0  0  0  0  0  0
  -16.4074   16.8975   26.5163 C   0  0  0  0  0  0  0  0  0  0  0  0
  -15.3264   16.3309   26.9955 N   0  0  0  0  0  0  0  0  0  0  0  0
  -14.3269   17.2208   26.7556 N   0  0  0  0  0  0  0  0  0  0  0  0
  -13.3417   17.0476   27.0276 H   0  0  0  0  0  0  0  0  0  0  0  0
  -14.7761   18.3290   26.1308 C   0  0  0  0  0  0  0  0  0  0  0  0
  -14.1396   19.1313   25.8594 H   0  0  0  0  0  0  0  0  0  0  0  0
  -16.1032   18.1393   25.9668 C   0  0  0  0  0  0  0  0  0  0  0  0
  -16.7852   18.8055   25.5019 H   0  0  0  0  0  0  0  0  0  0  0  0
  -18.1973   13.1582   24.5566 C   0  0  0  0  0  0  0  0  0  0  0  0
  -17.5576   13.4643   23.7703 H   0  0  0  0  0  0  0  0  0  0  0  0
  -18.6706   11.8467   24.6023 C   0  0  0  0  0  0  0  0  0  0  0  0
  -18.3818   11.1585   23.8500 H   0  0  0  0  0  0  0  0  0  0  0  0
  -19.5199   11.4309   25.6299 C   0  0  0  0  0  0  0  0  0  0  0  0
  -19.8720   10.4313   25.6547 H   0  0  0  0  0  0  0  0  0  0  0  0
  -19.9069   12.3339   26.6185 C   0  0  0  0  0  0  0  0  0  0  0  0
  -20.5567   12.0333   27.3990 H   0  0  0  0  0  0  0  0  0  0  0  0
  1  2  1  0
  2  3  1  0
  2 23  2  0
  3  4  1  0
  3 17  2  0
  4  5  1  0
  4  6  1  0
  6  7  1  0
  6  8  1  0
  6  9  1  0
  9 10  2  0
  9 15  1  0
 10 11  1  0
 11 12  1  0
 11 13  1  0
 13 14  1  0
 13 15  2  0
 15 16  1  0
 17 18  1  0
 17 19  1  0
 19 20  1  0
 19 21  2  0
 21 22  1  0
 21 23  1  0
 23 24  1  0
M  END
$$$$
