
     RDKit          3D

 30 31  0  0  0  0  0  0  0  0999 V2000
  -25.0268   15.2350   30.0808 N   0  0  0  0  0  0  0  0  0  0  0  0
  -26.2668   15.6285   29.3845 C   0  0  0  0  0  0  0  0  0  0  0  0
  -26.7038   16.5326   29.8173 H   0  0  0  0  0  0  0  0  0  0  0  0
  -26.0369   15.9118   28.3495 H   0  0  0  0  0  0  0  0  0  0  0  0
  -27.2613   14.4776   29.3525 C   0  0  0  0  0  0  0  0  0  0  0  0
  -27.5064   14.1157   30.3545 H   0  0  0  0  0  0  0  0  0  0  0  0
  -26.8592   13.6290   28.7884 H   0  0  0  0  0  0  0  0  0  0  0  0
  -28.1905   14.7935   28.8669 H   0  0  0  0  0  0  0  0  0  0  0  0
  -24.5009   16.2897   30.9707 C   0  0  0  0  0  0  0  0  0  0  0  0
  -25.2649   16.6235   31.6812 H   0  0  0  0  0  0  0  0  0  0  0  0
  -23.6881   15.8925   31.5921 H   0  0  0  0  0  0  0  0  0  0  0  0
  -23.9711   17.4662   30.1627 C   0  0  0  0  0  0  0  0  0  0  0  0
  -24.7573   17.9239   29.5548 H   0  0  0  0  0  0  0  0  0  0  0  0
  -23.1701   17.1508   29.4869 H   0  0  0  0  0  0  0  0  0  0  0  0
  -23.5694   18.2334   30.8319 H   0  0  0  0  0  0  0  0  0  0  0  0
  -24.3809   13.9577   29.9211 C   0  0  0  0  0  0  0  0  0  0  0  0
  -24.2333   13.3310   28.6303 N   0  0  0  0  0  0  0  0  0  0  0  0
  -24.6224   13.7567   27.4083 N   0  0  0  0  0  0  0  0  0  0  0  0
  -24.2256   12.7921   26.6368 C   0  0  0  0  0  0  0  0  0  0  0  0
  -24.3802   12.8116   25.5857 H   0  0  0  0  0  0  0  0  0  0  0  0
  -23.6107   11.7717   27.2439 N   0  0  0  0  0  0  0  0  0  0  0  0
  -23.6146   12.1123   28.5003 C   0  0  0  0  0  0  0  0  0  0  0  0
  -23.1007   11.4097   29.5769 N   0  0  0  0  0  0  0  0  0  0  0  0
  -23.2096   11.9325   30.7547 C   0  0  0  0  0  0  0  0  0  0  0  0
  -22.6587   11.1897   31.9408 C   0  0  0  0  0  0  0  0  0  0  0  0
  -22.8251   11.7385   32.8706 H   0  0  0  0  0  0  0  0  0  0  0  0
  -21.5839   11.0397   31.8051 H   0  0  0  0  0  0  0  0  0  0  0  0
  -23.1479   10.2136   32.0135 H   0  0  0  0  0  0  0  0  0  0  0  0
  -23.8610   13.2483   30.9880 C   0  0  0  0  0  0  0  0  0  0  0  0
  -23.9334   13.6271   31.9687 H   0  0  0  0  0  0  0  0  0  0  0  0
  1  2  1  0
  1  9  1  0
  1 16  1  0
  2  3  1  0
  2  4  1  0
  2  5  1  0
  5  6  1  0
  5  7  1  0
  5  8  1  0
  9 10  1  0
  9 11  1  0
  9 12  1  0
 12 13  1  0
 12 14  1  0
 12 15  1  0
 16 17  1  0
 16 29  2  0
 17 18  1  0
 17 22  1  0
 18 19  2  0
 19 20  1  0
 19 21  1  0
 21 22  2  0
 22 23  1  0
 23 24  2  0
 24 25  1  0
 24 29  1  0
 25 26  1  0
 25 27  1  0
 25 28  1  0
 29 30  1  0
M  END
$$$$
