
     RDKit          3D

 26 28  0  0  0  0  0  0  0  0999 V2000
  -22.5536   10.6773   27.3326 O   0  0  0  0  0  0  0  0  0  0  0  0
  -21.7856   11.4810   27.8518 C   0  0  0  0  0  0  0  0  0  0  0  0
  -21.9133   11.7106   29.1987 N   0  0  0  0  0  0  0  0  0  0  0  0
  -21.2063   12.2903   29.6597 H   0  0  0  0  0  0  0  0  0  0  0  0
  -22.9614   11.1593   29.9981 C   0  0  0  0  0  0  0  0  0  0  0  0
  -23.2885   10.1816   29.6505 H   0  0  0  0  0  0  0  0  0  0  0  0
  -24.0193   12.0431   30.6012 C   0  0  0  0  0  0  0  0  0  0  0  0
  -23.9514   13.1145   30.4553 H   0  0  0  0  0  0  0  0  0  0  0  0
  -25.0333   11.6628   30.6369 H   0  0  0  0  0  0  0  0  0  0  0  0
  -22.9948   11.3934   31.4835 C   0  0  0  0  0  0  0  0  0  0  0  0
  -23.3078   10.5685   32.1119 H   0  0  0  0  0  0  0  0  0  0  0  0
  -22.2264   12.0189   31.9214 H   0  0  0  0  0  0  0  0  0  0  0  0
  -20.7069   12.1602   27.1014 C   0  0  0  0  0  0  0  0  0  0  0  0
  -20.4169   13.5002   27.4218 C   0  0  0  0  0  0  0  0  0  0  0  0
  -20.9603   14.0068   28.1765 H   0  0  0  0  0  0  0  0  0  0  0  0
  -19.4067   14.1483   26.7311 C   0  0  0  0  0  0  0  0  0  0  0  0
  -19.0094   15.4341   26.9164 O   0  0  0  0  0  0  0  0  0  0  0  0
  -17.9537   15.5370   25.9383 C   0  0  0  0  0  0  0  0  0  0  0  0
  -18.2059   16.3359   25.2328 H   0  0  0  0  0  0  0  0  0  0  0  0
  -17.0231   15.8026   26.4529 H   0  0  0  0  0  0  0  0  0  0  0  0
  -17.7391   14.3174   25.1970 O   0  0  0  0  0  0  0  0  0  0  0  0
  -18.6832   13.5124   25.7528 C   0  0  0  0  0  0  0  0  0  0  0  0
  -18.9313   12.1894   25.4157 C   0  0  0  0  0  0  0  0  0  0  0  0
  -18.3569   11.7124   24.6630 H   0  0  0  0  0  0  0  0  0  0  0  0
  -19.9444   11.5135   26.0970 C   0  0  0  0  0  0  0  0  0  0  0  0
  -20.1314   10.4968   25.8621 H   0  0  0  0  0  0  0  0  0  0  0  0
  1  2  2  0
  2  3  1  0
  2 13  1  0
  3  4  1  0
  3  5  1  0
  5  6  1  0
  5  7  1  0
  5 10  1  0
  7  8  1  0
  7  9  1  0
  7 10  1  0
 10 11  1  0
 10 12  1  0
 13 14  1  0
 13 25  2  0
 14 15  1  0
 14 16  2  0
 16 17  1  0
 16 22  1  0
 17 18  1  0
 18 19  1  0
 18 20  1  0
 18 21  1  0
 21 22  1  0
 22 23  2  0
 23 24  1  0
 23 25  1  0
 25 26  1  0
M  END
$$$$
