
     RDKit          3D

 14 14  0  0  0  0  0  0  0  0999 V2000
  -24.1039   11.8050   26.2767 O   0  0  0  0  0  0  0  0  0  0  0  0
  -23.7332   11.6564   27.4742 C   0  0  0  0  0  0  0  0  0  0  0  0
  -22.9410   10.7142   27.7725 O   0  0  0  0  0  0  0  0  0  0  0  0
  -24.2142   12.5673   28.5051 C   0  0  0  0  0  0  0  0  0  0  0  0
  -23.8699   12.5758   29.8466 C   0  0  0  0  0  0  0  0  0  0  0  0
  -22.9105   11.6190   30.4920 C   0  0  0  0  0  0  0  0  0  0  0  0
  -22.8055   11.8251   31.5621 H   0  0  0  0  0  0  0  0  0  0  0  0
  -21.9164   11.7057   30.0421 H   0  0  0  0  0  0  0  0  0  0  0  0
  -23.2666   10.5883   30.3909 H   0  0  0  0  0  0  0  0  0  0  0  0
  -24.5139   13.5895   30.5743 C   0  0  0  0  0  0  0  0  0  0  0  0
  -24.3707   13.7486   31.6115 H   0  0  0  0  0  0  0  0  0  0  0  0
  -25.3457   14.3533   29.8084 C   0  0  0  0  0  0  0  0  0  0  0  0
  -25.9394   15.1727   30.1213 H   0  0  0  0  0  0  0  0  0  0  0  0
  -25.3544   13.8390   28.1660 S   0  0  0  0  0  0  0  0  0  0  0  0
  1  2  1  0
  2  3  2  0
  2  4  1  0
  4  5  2  0
  4 14  1  0
  5  6  1  0
  5 10  1  0
  6  7  1  0
  6  8  1  0
  6  9  1  0
 10 11  1  0
 10 12  2  0
 12 13  1  0
 12 14  1  0
M  END
$$$$
