
     RDKit          3D

 29 30  0  0  0  0  0  0  0  0999 V2000
  -20.4899   12.5921   27.9969 C   0  0  0  0  0  0  0  0  0  0  0  0
  -20.3067   13.6707   28.0276 H   0  0  0  0  0  0  0  0  0  0  0  0
  -19.5984   12.0993   27.5929 H   0  0  0  0  0  0  0  0  0  0  0  0
  -20.6084   12.2336   29.0254 H   0  0  0  0  0  0  0  0  0  0  0  0
  -21.7157   12.2553   27.1540 C   0  0  0  0  0  0  0  0  0  0  0  0
  -21.8807   10.8370   27.1357 O   0  0  0  0  0  0  0  0  0  0  0  0
  -22.1494   10.5658   28.0300 H   0  0  0  0  0  0  0  0  0  0  0  0
  -22.9474   12.9320   27.6637 C   0  0  0  0  0  0  0  0  0  0  0  0
  -24.1136   13.1888   26.9520 C   0  0  0  0  0  0  0  0  0  0  0  0
  -24.2769   12.9396   25.9331 H   0  0  0  0  0  0  0  0  0  0  0  0
  -25.0036   13.7850   27.6985 N   0  0  0  0  0  0  0  0  0  0  0  0
  -24.4075   13.9247   28.9163 N   0  0  0  0  0  0  0  0  0  0  0  0
  -25.0972   14.5545   30.0156 C   0  0  0  0  0  0  0  0  0  0  0  0
  -25.8385   13.8343   30.3903 H   0  0  0  0  0  0  0  0  0  0  0  0
  -24.1940   14.9799   31.1722 C   0  0  0  0  0  0  0  0  0  0  0  0
  -23.8644   14.1291   31.7774 H   0  0  0  0  0  0  0  0  0  0  0  0
  -23.2950   15.4943   30.8121 H   0  0  0  0  0  0  0  0  0  0  0  0
  -25.0524   15.9548   31.9728 C   0  0  0  0  0  0  0  0  0  0  0  0
  -25.5549   15.4337   32.7960 H   0  0  0  0  0  0  0  0  0  0  0  0
  -24.4426   16.7503   32.4138 H   0  0  0  0  0  0  0  0  0  0  0  0
  -26.0935   16.5092   30.9999 C   0  0  0  0  0  0  0  0  0  0  0  0
  -26.0464   17.6014   30.9317 H   0  0  0  0  0  0  0  0  0  0  0  0
  -27.1005   16.2460   31.3460 H   0  0  0  0  0  0  0  0  0  0  0  0
  -25.8101   15.8552   29.6519 C   0  0  0  0  0  0  0  0  0  0  0  0
  -25.1661   16.5106   29.0520 H   0  0  0  0  0  0  0  0  0  0  0  0
  -26.7265   15.6820   29.0774 H   0  0  0  0  0  0  0  0  0  0  0  0
  -23.1574   13.4096   28.9124 C   0  0  0  0  0  0  0  0  0  0  0  0
  -22.5403   13.4203   29.7727 H   0  0  0  0  0  0  0  0  0  0  0  0
  -21.5384   12.5693   26.1175 H   0  0  0  0  0  0  0  0  0  0  0  0
  1  2  1  0
  1  3  1  0
  1  4  1  0
  1  5  1  0
  5  6  1  0
  5  8  1  0
  5 29  1  0
  6  7  1  0
  8  9  1  0
  8 27  2  0
  9 10  1  0
  9 11  2  0
 11 12  1  0
 12 13  1  0
 12 27  1  0
 13 14  1  0
 13 15  1  0
 13 24  1  0
 15 16  1  0
 15 17  1  0
 15 18  1  0
 18 19  1  0
 18 20  1  0
 18 21  1  0
 21 22  1  0
 21 23  1  0
 21 24  1  0
 24 25  1  0
 24 26  1  0
 27 28  1  0
M  END
$$$$
