
     RDKit          3D

 23 23  0  0  0  0  0  0  0  0999 V2000
  -22.7536   11.1414   27.4697 Cl  0  0  0  0  0  0  0  0  0  0  0  0
  -23.7843   12.4654   27.8563 C   0  0  0  0  0  0  0  0  0  0  0  0
  -23.9195   12.9915   29.1510 C   0  0  0  0  0  0  0  0  0  0  0  0
  -23.2154   12.5044   30.3558 C   0  0  0  0  0  0  0  0  0  0  0  0
  -22.4131   11.5881   30.4559 O   0  0  0  0  0  0  0  0  0  0  0  0
  -23.4672   13.1299   31.5331 N   0  0  0  0  0  0  0  0  0  0  0  0
  -22.9873   12.7939   32.3769 H   0  0  0  0  0  0  0  0  0  0  0  0
  -24.1333   13.9123   31.5616 H   0  0  0  0  0  0  0  0  0  0  0  0
  -24.7625   14.0388   29.3350 N   0  0  0  0  0  0  0  0  0  0  0  0
  -25.4404   14.5488   28.3184 C   0  0  0  0  0  0  0  0  0  0  0  0
  -26.3640   15.7121   28.5772 C   0  0  0  0  0  0  0  0  0  0  0  0
  -27.1708   15.6826   27.8340 H   0  0  0  0  0  0  0  0  0  0  0  0
  -27.0003   15.6065   29.9619 C   0  0  0  0  0  0  0  0  0  0  0  0
  -26.2490   15.6548   30.7592 H   0  0  0  0  0  0  0  0  0  0  0  0
  -27.5409   14.6596   30.0737 H   0  0  0  0  0  0  0  0  0  0  0  0
  -27.7134   16.4218   30.1236 H   0  0  0  0  0  0  0  0  0  0  0  0
  -25.6261   17.0406   28.4110 C   0  0  0  0  0  0  0  0  0  0  0  0
  -24.8180   17.1500   29.1429 H   0  0  0  0  0  0  0  0  0  0  0  0
  -26.3132   17.8838   28.5419 H   0  0  0  0  0  0  0  0  0  0  0  0
  -25.1826   17.1202   27.4127 H   0  0  0  0  0  0  0  0  0  0  0  0
  -25.3277   14.0633   27.0785 N   0  0  0  0  0  0  0  0  0  0  0  0
  -24.5238   13.0456   26.8324 C   0  0  0  0  0  0  0  0  0  0  0  0
  -24.4488   12.6752   25.8410 H   0  0  0  0  0  0  0  0  0  0  0  0
  1  2  1  0
  2  3  1  0
  2 22  2  0
  3  4  1  0
  3  9  2  0
  4  5  2  0
  4  6  1  0
  6  7  1  0
  6  8  1  0
  9 10  1  0
 10 11  1  0
 10 21  2  0
 11 12  1  0
 11 13  1  0
 11 17  1  0
 13 14  1  0
 13 15  1  0
 13 16  1  0
 17 18  1  0
 17 19  1  0
 17 20  1  0
 21 22  1  0
 22 23  1  0
M  END
$$$$
