
     RDKit          3D

 27 27  0  0  0  0  0  0  0  0999 V2000
  -19.0196   11.6109   24.2058 S   0  0  0  0  0  0  0  0  0  0  0  0
  -19.8626   10.7349   24.9897 O   0  0  0  0  0  0  0  0  0  0  0  0
  -19.3103   11.9168   22.8222 O   0  0  0  0  0  0  0  0  0  0  0  0
  -17.4611   10.9688   24.2529 N   0  0  0  0  0  0  0  0  0  0  0  0
  -16.9257   11.3101   25.0547 H   0  0  0  0  0  0  0  0  0  0  0  0
  -16.9742   11.0697   23.3589 H   0  0  0  0  0  0  0  0  0  0  0  0
  -18.8057   13.1192   25.0815 C   0  0  0  0  0  0  0  0  0  0  0  0
  -19.5359   13.3768   26.2455 C   0  0  0  0  0  0  0  0  0  0  0  0
  -20.2028   12.6387   26.6194 H   0  0  0  0  0  0  0  0  0  0  0  0
  -19.4051   14.5904   26.9105 C   0  0  0  0  0  0  0  0  0  0  0  0
  -19.9703   14.7712   27.7902 H   0  0  0  0  0  0  0  0  0  0  0  0
  -18.5445   15.5709   26.4207 C   0  0  0  0  0  0  0  0  0  0  0  0
  -18.4564   16.9099   27.0995 C   0  0  0  0  0  0  0  0  0  0  0  0
  -17.4324   17.3015   27.0594 H   0  0  0  0  0  0  0  0  0  0  0  0
  -18.7263   16.8299   28.1597 H   0  0  0  0  0  0  0  0  0  0  0  0
  -19.3454   17.8595   26.4654 N   0  0  0  0  0  0  0  0  0  0  0  0
  -19.8042   17.5728   25.6179 H   0  0  0  0  0  0  0  0  0  0  0  0
  -19.5646   19.0690   26.9624 C   0  0  0  0  0  0  0  0  0  0  0  0
  -19.0283   19.4557   27.9901 O   0  0  0  0  0  0  0  0  0  0  0  0
  -20.5255   19.9174   26.1797 C   0  0  0  0  0  0  0  0  0  0  0  0
  -20.2214   19.9574   25.1298 H   0  0  0  0  0  0  0  0  0  0  0  0
  -21.5311   19.4932   26.2506 H   0  0  0  0  0  0  0  0  0  0  0  0
  -20.5341   20.9334   26.5837 H   0  0  0  0  0  0  0  0  0  0  0  0
  -17.8216   15.3259   25.2559 C   0  0  0  0  0  0  0  0  0  0  0  0
  -17.1741   16.0714   24.8669 H   0  0  0  0  0  0  0  0  0  0  0  0
  -17.9536   14.1113   24.5903 C   0  0  0  0  0  0  0  0  0  0  0  0
  -17.4079   13.9379   23.6956 H   0  0  0  0  0  0  0  0  0  0  0  0
  1  2  2  0
  1  3  2  0
  1  4  1  0
  1  7  1  0
  4  5  1  0
  4  6  1  0
  7  8  1  0
  7 26  2  0
  8  9  1  0
  8 10  2  0
 10 11  1  0
 10 12  1  0
 12 13  1  0
 12 24  2  0
 13 14  1  0
 13 15  1  0
 13 16  1  0
 16 17  1  0
 16 18  1  0
 18 19  2  0
 18 20  1  0
 20 21  1  0
 20 22  1  0
 20 23  1  0
 24 25  1  0
 24 26  1  0
 26 27  1  0
M  END
$$$$
