
     RDKit          3D

 27 28  0  0  0  0  0  0  0  0999 V2000
  -17.3828   14.6714   24.3340 F   0  0  0  0  0  0  0  0  0  0  0  0
  -18.1523   13.8328   25.0478 C   0  0  0  0  0  0  0  0  0  0  0  0
  -18.5236   14.1779   26.3542 C   0  0  0  0  0  0  0  0  0  0  0  0
  -18.0767   15.3870   26.8690 N   0  0  0  0  0  0  0  0  0  0  0  0
  -17.4337   15.3435   27.6542 H   0  0  0  0  0  0  0  0  0  0  0  0
  -18.4481   16.6992   26.3790 C   0  0  0  0  0  0  0  0  0  0  0  0
  -18.3473   16.7239   25.2865 H   0  0  0  0  0  0  0  0  0  0  0  0
  -19.5067   16.8808   26.6056 H   0  0  0  0  0  0  0  0  0  0  0  0
  -17.6376   17.8274   26.9414 C   0  0  0  0  0  0  0  0  0  0  0  0
  -16.2941   17.9946   26.8585 C   0  0  0  0  0  0  0  0  0  0  0  0
  -15.2219   17.1848   26.2347 C   0  0  0  0  0  0  0  0  0  0  0  0
  -15.5738   16.7182   25.3102 H   0  0  0  0  0  0  0  0  0  0  0  0
  -14.9004   16.3926   26.9183 H   0  0  0  0  0  0  0  0  0  0  0  0
  -14.3503   17.8001   25.9871 H   0  0  0  0  0  0  0  0  0  0  0  0
  -16.0410   19.1477   27.5222 N   0  0  0  0  0  0  0  0  0  0  0  0
  -15.0998   19.5651   27.6499 H   0  0  0  0  0  0  0  0  0  0  0  0
  -17.1669   19.7175   28.0196 N   0  0  0  0  0  0  0  0  0  0  0  0
  -18.1267   18.9093   27.6664 C   0  0  0  0  0  0  0  0  0  0  0  0
  -19.1438   19.0759   27.9156 H   0  0  0  0  0  0  0  0  0  0  0  0
  -19.3218   13.2932   27.0856 C   0  0  0  0  0  0  0  0  0  0  0  0
  -19.5948   13.5249   28.0812 H   0  0  0  0  0  0  0  0  0  0  0  0
  -19.7404   12.0973   26.5014 C   0  0  0  0  0  0  0  0  0  0  0  0
  -20.3446   11.4254   27.0558 H   0  0  0  0  0  0  0  0  0  0  0  0
  -19.3665   11.7705   25.1953 C   0  0  0  0  0  0  0  0  0  0  0  0
  -19.6888   10.8581   24.7638 H   0  0  0  0  0  0  0  0  0  0  0  0
  -18.5639   12.6448   24.4623 C   0  0  0  0  0  0  0  0  0  0  0  0
  -18.2692   12.4086   23.4717 H   0  0  0  0  0  0  0  0  0  0  0  0
  1  2  1  0
  2  3  1  0
  2 26  2  0
  3  4  1  0
  3 20  2  0
  4  5  1  0
  4  6  1  0
  6  7  1  0
  6  8  1  0
  6  9  1  0
  9 10  2  0
  9 18  1  0
 10 11  1  0
 10 15  1  0
 11 12  1  0
 11 13  1  0
 11 14  1  0
 15 16  1  0
 15 17  1  0
 17 18  2  0
 18 19  1  0
 20 21  1  0
 20 22  1  0
 22 23  1  0
 22 24  2  0
 24 25  1  0
 24 26  1  0
 26 27  1  0
M  END
$$$$
