
     RDKit          3D

 23 24  0  0  0  0  0  0  0  0999 V2000
  -20.4261   12.4688   29.1560 O   0  0  0  0  0  0  0  0  0  0  0  0
  -20.8648   12.2089   28.0399 C   0  0  0  0  0  0  0  0  0  0  0  0
  -19.9401   12.0734   27.0173 N   0  0  0  0  0  0  0  0  0  0  0  0
  -20.1968   11.8728   25.5953 C   0  0  0  0  0  0  0  0  0  0  0  0
  -20.8348   11.0060   25.4192 H   0  0  0  0  0  0  0  0  0  0  0  0
  -20.6911   12.7713   25.2111 H   0  0  0  0  0  0  0  0  0  0  0  0
  -18.8205   11.6726   24.9714 C   0  0  0  0  0  0  0  0  0  0  0  0
  -18.5563   10.6079   24.9855 H   0  0  0  0  0  0  0  0  0  0  0  0
  -18.7724   12.0224   23.9377 H   0  0  0  0  0  0  0  0  0  0  0  0
  -17.8986   12.4403   25.9061 C   0  0  0  0  0  0  0  0  0  0  0  0
  -17.9456   13.5114   25.6753 H   0  0  0  0  0  0  0  0  0  0  0  0
  -16.8558   12.1183   25.8397 H   0  0  0  0  0  0  0  0  0  0  0  0
  -18.5096   12.1740   27.2718 C   0  0  0  0  0  0  0  0  0  0  0  0
  -18.2826   12.9636   27.9937 H   0  0  0  0  0  0  0  0  0  0  0  0
  -18.1758   11.2129   27.6802 H   0  0  0  0  0  0  0  0  0  0  0  0
  -22.2862   12.1083   27.7697 C   0  0  0  0  0  0  0  0  0  0  0  0
  -22.8989   10.9666   27.3454 C   0  0  0  0  0  0  0  0  0  0  0  0
  -22.5160    9.9968   27.1580 H   0  0  0  0  0  0  0  0  0  0  0  0
  -24.1929   11.2815   27.1749 N   0  0  0  0  0  0  0  0  0  0  0  0
  -24.9282   10.6227   26.8537 H   0  0  0  0  0  0  0  0  0  0  0  0
  -24.4457   12.5879   27.4654 N   0  0  0  0  0  0  0  0  0  0  0  0
  -23.2904   13.0789   27.8131 C   0  0  0  0  0  0  0  0  0  0  0  0
  -23.1517   14.0958   28.0790 H   0  0  0  0  0  0  0  0  0  0  0  0
  1  2  2  0
  2  3  1  0
  2 16  1  0
  3  4  1  0
  3 13  1  0
  4  5  1  0
  4  6  1  0
  4  7  1  0
  7  8  1  0
  7  9  1  0
  7 10  1  0
 10 11  1  0
 10 12  1  0
 10 13  1  0
 13 14  1  0
 13 15  1  0
 16 17  2  0
 16 22  1  0
 17 18  1  0
 17 19  1  0
 19 20  1  0
 19 21  1  0
 21 22  2  0
 22 23  1  0
M  END
$$$$
