
     RDKit          3D

 22 22  0  0  0  0  0  0  0  0999 V2000
  -17.4757   15.7928   25.6157 O   0  0  0  0  0  0  0  0  0  0  0  0
  -17.4029   16.1401   24.7098 H   0  0  0  0  0  0  0  0  0  0  0  0
  -18.4360   14.7406   25.5819 C   0  0  0  0  0  0  0  0  0  0  0  0
  -19.3225   15.0882   25.0404 H   0  0  0  0  0  0  0  0  0  0  0  0
  -17.9910   13.9050   25.0324 H   0  0  0  0  0  0  0  0  0  0  0  0
  -18.7810   14.2995   27.0029 C   0  0  0  0  0  0  0  0  0  0  0  0
  -17.8631   13.9645   27.5015 H   0  0  0  0  0  0  0  0  0  0  0  0
  -19.1719   15.1507   27.5753 H   0  0  0  0  0  0  0  0  0  0  0  0
  -19.7862   13.1917   27.0403 C   0  0  0  0  0  0  0  0  0  0  0  0
  -20.9841   13.1956   27.6673 C   0  0  0  0  0  0  0  0  0  0  0  0
  -21.4693   13.9327   28.2513 H   0  0  0  0  0  0  0  0  0  0  0  0
  -21.5377   11.9885   27.4188 N   0  0  0  0  0  0  0  0  0  0  0  0
  -22.8221   11.4904   27.8611 C   0  0  0  0  0  0  0  0  0  0  0  0
  -22.9876   10.5203   27.3805 H   0  0  0  0  0  0  0  0  0  0  0  0
  -22.7602   11.3245   28.9420 H   0  0  0  0  0  0  0  0  0  0  0  0
  -23.9532   12.4461   27.5257 C   0  0  0  0  0  0  0  0  0  0  0  0
  -24.0206   12.6134   26.4445 H   0  0  0  0  0  0  0  0  0  0  0  0
  -23.8046   13.4198   28.0045 H   0  0  0  0  0  0  0  0  0  0  0  0
  -24.9092   12.0387   27.8685 H   0  0  0  0  0  0  0  0  0  0  0  0
  -20.7299   11.2105   26.6560 N   0  0  0  0  0  0  0  0  0  0  0  0
  -19.6750   11.9456   26.4295 C   0  0  0  0  0  0  0  0  0  0  0  0
  -18.8446   11.6170   25.8538 H   0  0  0  0  0  0  0  0  0  0  0  0
  1  2  1  0
  1  3  1  0
  3  4  1  0
  3  5  1  0
  3  6  1  0
  6  7  1  0
  6  8  1  0
  6  9  1  0
  9 10  2  0
  9 21  1  0
 10 11  1  0
 10 12  1  0
 12 13  1  0
 12 20  1  0
 13 14  1  0
 13 15  1  0
 13 16  1  0
 16 17  1  0
 16 18  1  0
 16 19  1  0
 20 21  2  0
 21 22  1  0
M  END
$$$$
