
     RDKit          3D

 16 16  0  0  0  0  0  0  0  0999 V2000
  -22.8109   12.4894   26.7186 O   0  0  0  0  0  0  0  0  0  0  0  0
  -23.5098   11.5704   27.5583 C   0  0  0  0  0  0  0  0  0  0  0  0
  -24.5419   11.4598   27.2036 H   0  0  0  0  0  0  0  0  0  0  0  0
  -23.0205   10.5901   27.5327 H   0  0  0  0  0  0  0  0  0  0  0  0
  -23.5061   12.1283   28.9407 C   0  0  0  0  0  0  0  0  0  0  0  0
  -22.8481   11.2392   30.2487 S   0  0  0  0  0  0  0  0  0  0  0  0
  -23.2937   12.5540   31.2315 C   0  0  0  0  0  0  0  0  0  0  0  0
  -23.0399   12.5308   32.5509 N   0  0  0  0  0  0  0  0  0  0  0  0
  -22.5814   11.7479   32.9997 H   0  0  0  0  0  0  0  0  0  0  0  0
  -23.3060   13.3137   33.1359 H   0  0  0  0  0  0  0  0  0  0  0  0
  -23.8791   13.5397   30.6265 N   0  0  0  0  0  0  0  0  0  0  0  0
  -24.0006   13.2815   29.2770 N   0  0  0  0  0  0  0  0  0  0  0  0
  -21.4392   12.5849   27.0755 C   0  0  0  0  0  0  0  0  0  0  0  0
  -20.9571   13.2993   26.4024 H   0  0  0  0  0  0  0  0  0  0  0  0
  -20.9460   11.6145   26.9658 H   0  0  0  0  0  0  0  0  0  0  0  0
  -21.3349   12.9479   28.1025 H   0  0  0  0  0  0  0  0  0  0  0  0
  1  2  1  0
  1 13  1  0
  2  3  1  0
  2  4  1  0
  2  5  1  0
  5  6  1  0
  5 12  2  0
  6  7  1  0
  7  8  1  0
  7 11  2  0
  8  9  1  0
  8 10  1  0
 11 12  1  0
 13 14  1  0
 13 15  1  0
 13 16  1  0
M  END
$$$$
