
     RDKit          3D

 26 27  0  0  0  0  0  0  0  0999 V2000
  -21.0965   14.3321   28.1876 O   0  0  0  0  0  0  0  0  0  0  0  0
  -20.4962   13.8459   27.2207 C   0  0  0  0  0  0  0  0  0  0  0  0
  -20.7558   12.5227   26.8386 N   0  0  0  0  0  0  0  0  0  0  0  0
  -21.7473   11.7193   27.5491 C   0  0  0  0  0  0  0  0  0  0  0  0
  -21.8108   10.7369   27.0661 H   0  0  0  0  0  0  0  0  0  0  0  0
  -21.4209   11.5564   28.5820 H   0  0  0  0  0  0  0  0  0  0  0  0
  -23.0632   12.3953   27.5144 C   0  0  0  0  0  0  0  0  0  0  0  0
  -23.7561   12.3334   26.3751 O   0  0  0  0  0  0  0  0  0  0  0  0
  -24.9110   13.0001   26.5007 N   0  0  0  0  0  0  0  0  0  0  0  0
  -24.9480   13.4749   27.6977 C   0  0  0  0  0  0  0  0  0  0  0  0
  -26.1011   14.2671   28.1724 C   0  0  0  0  0  0  0  0  0  0  0  0
  -25.8785   14.7530   29.1281 H   0  0  0  0  0  0  0  0  0  0  0  0
  -26.9746   13.6224   28.3170 H   0  0  0  0  0  0  0  0  0  0  0  0
  -26.3631   15.0486   27.4517 H   0  0  0  0  0  0  0  0  0  0  0  0
  -23.7922   13.1189   28.3776 C   0  0  0  0  0  0  0  0  0  0  0  0
  -23.5305   13.3663   29.3737 H   0  0  0  0  0  0  0  0  0  0  0  0
  -20.1134   11.9045   25.7852 N   0  0  0  0  0  0  0  0  0  0  0  0
  -19.2257   12.5505   25.0954 C   0  0  0  0  0  0  0  0  0  0  0  0
  -18.5371   11.8567   23.9545 C   0  0  0  0  0  0  0  0  0  0  0  0
  -19.2887   11.4810   23.2528 H   0  0  0  0  0  0  0  0  0  0  0  0
  -17.9598   11.0119   24.3432 H   0  0  0  0  0  0  0  0  0  0  0  0
  -17.8626   12.5314   23.4217 H   0  0  0  0  0  0  0  0  0  0  0  0
  -18.8993   13.9026   25.4063 C   0  0  0  0  0  0  0  0  0  0  0  0
  -18.1721   14.4049   24.8219 H   0  0  0  0  0  0  0  0  0  0  0  0
  -19.5197   14.5374   26.4422 C   0  0  0  0  0  0  0  0  0  0  0  0
  -19.2999   15.5401   26.6983 H   0  0  0  0  0  0  0  0  0  0  0  0
  1  2  2  0
  2  3  1  0
  2 25  1  0
  3  4  1  0
  3 17  1  0
  4  5  1  0
  4  6  1  0
  4  7  1  0
  7  8  1  0
  7 15  2  0
  8  9  1  0
  9 10  2  0
 10 11  1  0
 10 15  1  0
 11 12  1  0
 11 13  1  0
 11 14  1  0
 15 16  1  0
 17 18  2  0
 18 19  1  0
 18 23  1  0
 19 20  1  0
 19 21  1  0
 19 22  1  0
 23 24  1  0
 23 25  2  0
 25 26  1  0
M  END
$$$$
