
     RDKit          3D

 20 20  0  0  0  0  0  0  0  0999 V2000
  -18.5317   10.9175   24.3550 O   0  0  0  0  0  0  0  0  0  0  0  0
  -18.7414   11.9930   24.9494 C   0  0  0  0  0  0  0  0  0  0  0  0
  -19.6723   12.0170   26.0058 N   0  0  0  0  0  0  0  0  0  0  0  0
  -20.3638   10.7862   26.3769 C   0  0  0  0  0  0  0  0  0  0  0  0
  -20.1513   10.5531   27.4246 H   0  0  0  0  0  0  0  0  0  0  0  0
  -20.0461    9.9322   25.7721 H   0  0  0  0  0  0  0  0  0  0  0  0
  -21.4406   10.9203   26.2317 H   0  0  0  0  0  0  0  0  0  0  0  0
  -19.9495   13.2175   26.6989 C   0  0  0  0  0  0  0  0  0  0  0  0
  -20.9676   13.2202   27.8051 C   0  0  0  0  0  0  0  0  0  0  0  0
  -21.9514   12.9232   27.4273 H   0  0  0  0  0  0  0  0  0  0  0  0
  -21.0802   14.2140   28.2517 H   0  0  0  0  0  0  0  0  0  0  0  0
  -20.6728   12.5380   28.6081 H   0  0  0  0  0  0  0  0  0  0  0  0
  -19.2776   14.3603   26.3636 C   0  0  0  0  0  0  0  0  0  0  0  0
  -19.4762   15.2619   26.8833 H   0  0  0  0  0  0  0  0  0  0  0  0
  -18.3140   14.3804   25.3193 C   0  0  0  0  0  0  0  0  0  0  0  0
  -17.8143   15.2826   25.0777 H   0  0  0  0  0  0  0  0  0  0  0  0
  -18.0540   13.2363   24.6249 C   0  0  0  0  0  0  0  0  0  0  0  0
  -17.1453   13.1811   23.5973 N   0  0  0  0  0  0  0  0  0  0  0  0
  -16.6254   13.9973   23.3092 H   0  0  0  0  0  0  0  0  0  0  0  0
  -17.0141   12.2838   23.1361 H   0  0  0  0  0  0  0  0  0  0  0  0
  1  2  2  0
  2  3  1  0
  2 17  1  0
  3  4  1  0
  3  8  1  0
  4  5  1  0
  4  6  1  0
  4  7  1  0
  8  9  1  0
  8 13  2  0
  9 10  1  0
  9 11  1  0
  9 12  1  0
 13 14  1  0
 13 15  1  0
 15 16  1  0
 15 17  2  0
 17 18  1  0
 18 19  1  0
 18 20  1  0
M  END
$$$$
