
     RDKit          3D

 29 30  0  0  0  0  0  0  0  0999 V2000
  -18.1339   13.6811   24.2924 C   0  0  0  0  0  0  0  0  0  0  0  0
  -19.0401   14.2895   24.2118 H   0  0  0  0  0  0  0  0  0  0  0  0
  -17.4412   13.9822   23.4984 H   0  0  0  0  0  0  0  0  0  0  0  0
  -17.6439   13.9174   25.2434 H   0  0  0  0  0  0  0  0  0  0  0  0
  -18.4477   12.1917   24.1922 C   0  0  0  0  0  0  0  0  0  0  0  0
  -17.2237   11.4612   24.2786 O   0  0  0  0  0  0  0  0  0  0  0  0
  -16.7431   11.6031   23.4453 H   0  0  0  0  0  0  0  0  0  0  0  0
  -19.4108   11.7514   25.2473 C   0  0  0  0  0  0  0  0  0  0  0  0
  -19.8606   10.4566   25.4786 C   0  0  0  0  0  0  0  0  0  0  0  0
  -19.5781    9.6006   24.9180 H   0  0  0  0  0  0  0  0  0  0  0  0
  -20.6889   10.4150   26.4872 N   0  0  0  0  0  0  0  0  0  0  0  0
  -20.7859   11.7043   26.9186 N   0  0  0  0  0  0  0  0  0  0  0  0
  -21.6296   12.0550   28.0348 C   0  0  0  0  0  0  0  0  0  0  0  0
  -21.0187   11.9678   28.9446 H   0  0  0  0  0  0  0  0  0  0  0  0
  -22.2181   13.4635   27.9686 C   0  0  0  0  0  0  0  0  0  0  0  0
  -21.4767   14.2354   28.1989 H   0  0  0  0  0  0  0  0  0  0  0  0
  -22.6229   13.6837   26.9735 H   0  0  0  0  0  0  0  0  0  0  0  0
  -23.3545   13.4380   28.9865 C   0  0  0  0  0  0  0  0  0  0  0  0
  -23.0098   13.8238   29.9531 H   0  0  0  0  0  0  0  0  0  0  0  0
  -24.1907   14.0668   28.6634 H   0  0  0  0  0  0  0  0  0  0  0  0
  -23.7676   11.9731   29.1324 C   0  0  0  0  0  0  0  0  0  0  0  0
  -24.8272   11.8235   28.8985 H   0  0  0  0  0  0  0  0  0  0  0  0
  -23.6116   11.6459   30.1676 H   0  0  0  0  0  0  0  0  0  0  0  0
  -22.8721   11.1800   28.1867 C   0  0  0  0  0  0  0  0  0  0  0  0
  -23.3830   11.0397   27.2257 H   0  0  0  0  0  0  0  0  0  0  0  0
  -22.6362   10.1854   28.5802 H   0  0  0  0  0  0  0  0  0  0  0  0
  -20.0136   12.5293   26.1764 C   0  0  0  0  0  0  0  0  0  0  0  0
  -19.9539   13.5692   26.3667 H   0  0  0  0  0  0  0  0  0  0  0  0
  -18.8773   11.9790   23.2050 H   0  0  0  0  0  0  0  0  0  0  0  0
  1  2  1  0
  1  3  1  0
  1  4  1  0
  1  5  1  0
  5  6  1  0
  5  8  1  0
  5 29  1  0
  6  7  1  0
  8  9  1  0
  8 27  2  0
  9 10  1  0
  9 11  2  0
 11 12  1  0
 12 13  1  0
 12 27  1  0
 13 14  1  0
 13 15  1  0
 13 24  1  0
 15 16  1  0
 15 17  1  0
 15 18  1  0
 18 19  1  0
 18 20  1  0
 18 21  1  0
 21 22  1  0
 21 23  1  0
 21 24  1  0
 24 25  1  0
 24 26  1  0
 27 28  1  0
M  END
$$$$
