
     RDKit          3D

 24 24  0  0  0  0  0  0  0  0999 V2000
  -26.3697   13.7149   29.1524 O   0  0  0  0  0  0  0  0  0  0  0  0
  -26.8126   13.1699   28.4776 H   0  0  0  0  0  0  0  0  0  0  0  0
  -25.5970   14.6891   28.4611 C   0  0  0  0  0  0  0  0  0  0  0  0
  -24.8869   14.1723   27.8083 H   0  0  0  0  0  0  0  0  0  0  0  0
  -26.2811   15.2754   27.8399 H   0  0  0  0  0  0  0  0  0  0  0  0
  -24.8769   15.6188   29.4465 C   0  0  0  0  0  0  0  0  0  0  0  0
  -25.5824   16.3119   29.9195 H   0  0  0  0  0  0  0  0  0  0  0  0
  -24.1848   16.2535   28.8788 H   0  0  0  0  0  0  0  0  0  0  0  0
  -24.0993   14.8631   30.4533 N   0  0  0  0  0  0  0  0  0  0  0  0
  -23.8439   15.5736   31.7061 C   0  0  0  0  0  0  0  0  0  0  0  0
  -24.1435   16.6267   31.6461 H   0  0  0  0  0  0  0  0  0  0  0  0
  -22.7757   15.5611   31.9488 H   0  0  0  0  0  0  0  0  0  0  0  0
  -24.4100   15.1200   32.5269 H   0  0  0  0  0  0  0  0  0  0  0  0
  -23.6621   13.5918   30.1710 C   0  0  0  0  0  0  0  0  0  0  0  0
  -24.0882   12.6488   31.0242 N   0  0  0  0  0  0  0  0  0  0  0  0
  -24.6763   12.9770   31.7981 H   0  0  0  0  0  0  0  0  0  0  0  0
  -23.7722   11.3257   30.8933 C   0  0  0  0  0  0  0  0  0  0  0  0
  -24.1749   10.6796   31.6341 H   0  0  0  0  0  0  0  0  0  0  0  0
  -22.9788   10.9239   29.8443 C   0  0  0  0  0  0  0  0  0  0  0  0
  -22.7215    9.9021   29.7223 H   0  0  0  0  0  0  0  0  0  0  0  0
  -22.4980   11.8753   28.9274 C   0  0  0  0  0  0  0  0  0  0  0  0
  -21.8758   11.5709   28.1202 H   0  0  0  0  0  0  0  0  0  0  0  0
  -22.8319   13.1990   29.0882 C   0  0  0  0  0  0  0  0  0  0  0  0
  -22.4615   13.9258   28.4156 H   0  0  0  0  0  0  0  0  0  0  0  0
  1  2  1  0
  1  3  1  0
  3  4  1  0
  3  5  1  0
  3  6  1  0
  6  7  1  0
  6  8  1  0
  6  9  1  0
  9 10  1  0
  9 14  1  0
 10 11  1  0
 10 12  1  0
 10 13  1  0
 14 15  1  0
 14 23  2  0
 15 16  1  0
 15 17  2  0
 17 18  1  0
 17 19  1  0
 19 20  1  0
 19 21  2  0
 21 22  1  0
 21 23  1  0
 23 24  1  0
M  END
$$$$
