
     RDKit          3D

 32 33  0  0  0  0  0  0  0  0999 V2000
  -22.7042   13.5861   27.0467 O   0  0  0  0  0  0  0  0  0  0  0  0
  -22.4973   12.8282   27.9739 C   0  0  0  0  0  0  0  0  0  0  0  0
  -21.2217   12.5156   28.3499 N   0  0  0  0  0  0  0  0  0  0  0  0
  -21.1677   11.8649   29.1397 H   0  0  0  0  0  0  0  0  0  0  0  0
  -20.0289   12.9596   27.7996 C   0  0  0  0  0  0  0  0  0  0  0  0
  -19.8615   13.8790   26.8268 C   0  0  0  0  0  0  0  0  0  0  0  0
  -20.5557   14.4597   26.2784 H   0  0  0  0  0  0  0  0  0  0  0  0
  -18.5212   13.9546   26.6455 N   0  0  0  0  0  0  0  0  0  0  0  0
  -17.8007   14.7893   25.7075 C   0  0  0  0  0  0  0  0  0  0  0  0
  -17.2294   14.1277   25.0475 H   0  0  0  0  0  0  0  0  0  0  0  0
  -18.5390   15.3200   25.0963 H   0  0  0  0  0  0  0  0  0  0  0  0
  -16.8842   15.7793   26.4043 C   0  0  0  0  0  0  0  0  0  0  0  0
  -16.1309   15.2634   27.0089 H   0  0  0  0  0  0  0  0  0  0  0  0
  -17.4503   16.4401   27.0699 H   0  0  0  0  0  0  0  0  0  0  0  0
  -16.3648   16.3996   25.6680 H   0  0  0  0  0  0  0  0  0  0  0  0
  -17.8390   13.1143   27.4780 N   0  0  0  0  0  0  0  0  0  0  0  0
  -18.7663   12.5108   28.1761 C   0  0  0  0  0  0  0  0  0  0  0  0
  -18.5597   11.7861   28.9202 H   0  0  0  0  0  0  0  0  0  0  0  0
  -23.6233   12.1705   28.7576 C   0  0  0  0  0  0  0  0  0  0  0  0
  -23.6056   11.1030   28.5040 H   0  0  0  0  0  0  0  0  0  0  0  0
  -23.4623   12.3400   30.2741 C   0  0  0  0  0  0  0  0  0  0  0  0
  -23.0541   11.4354   30.7373 H   0  0  0  0  0  0  0  0  0  0  0  0
  -22.7856   13.1629   30.5284 H   0  0  0  0  0  0  0  0  0  0  0  0
  -24.8626   12.6360   30.7922 C   0  0  0  0  0  0  0  0  0  0  0  0
  -25.4141   11.7007   30.9446 H   0  0  0  0  0  0  0  0  0  0  0  0
  -24.8486   13.1823   31.7394 H   0  0  0  0  0  0  0  0  0  0  0  0
  -25.4944   13.4393   29.6693 C   0  0  0  0  0  0  0  0  0  0  0  0
  -25.1323   14.4730   29.6915 H   0  0  0  0  0  0  0  0  0  0  0  0
  -26.5856   13.4604   29.7366 H   0  0  0  0  0  0  0  0  0  0  0  0
  -25.0094   12.7333   28.4091 C   0  0  0  0  0  0  0  0  0  0  0  0
  -25.0135   13.4022   27.5428 H   0  0  0  0  0  0  0  0  0  0  0  0
  -25.6875   11.9011   28.1793 H   0  0  0  0  0  0  0  0  0  0  0  0
  1  2  2  0
  2  3  1  0
  2 19  1  0
  3  4  1  0
  3  5  1  0
  5  6  2  0
  5 17  1  0
  6  7  1  0
  6  8  1  0
  8  9  1  0
  8 16  1  0
  9 10  1  0
  9 11  1  0
  9 12  1  0
 12 13  1  0
 12 14  1  0
 12 15  1  0
 16 17  2  0
 17 18  1  0
 19 20  1  0
 19 21  1  0
 19 30  1  0
 21 22  1  0
 21 23  1  0
 21 24  1  0
 24 25  1  0
 24 26  1  0
 24 27  1  0
 27 28  1  0
 27 29  1  0
 27 30  1  0
 30 31  1  0
 30 32  1  0
M  END
$$$$
