
     RDKit          3D

 17 18  0  0  0  0  0  0  0  0999 V2000
  -22.0640   13.3827   28.6190 Br  0  0  0  0  0  0  0  0  0  0  0  0
  -20.8081   13.0390   27.2478 C   0  0  0  0  0  0  0  0  0  0  0  0
  -20.7079   11.7616   26.7017 C   0  0  0  0  0  0  0  0  0  0  0  0
  -21.3231   10.9698   27.0401 H   0  0  0  0  0  0  0  0  0  0  0  0
  -19.7698   11.5590   25.6984 C   0  0  0  0  0  0  0  0  0  0  0  0
  -19.4966   10.3823   25.0167 N   0  0  0  0  0  0  0  0  0  0  0  0
  -19.9460    9.4677   25.1461 H   0  0  0  0  0  0  0  0  0  0  0  0
  -18.5142   10.5652   24.1032 C   0  0  0  0  0  0  0  0  0  0  0  0
  -18.1353    9.6511   23.4090 O   0  0  0  0  0  0  0  0  0  0  0  0
  -18.0547   12.0205   24.1514 C   0  0  0  0  0  0  0  0  0  0  0  0
  -17.0012   12.0686   24.4363 H   0  0  0  0  0  0  0  0  0  0  0  0
  -18.2454   12.5016   23.1893 H   0  0  0  0  0  0  0  0  0  0  0  0
  -18.9458   12.5608   25.2267 C   0  0  0  0  0  0  0  0  0  0  0  0
  -19.0469   13.8368   25.7703 C   0  0  0  0  0  0  0  0  0  0  0  0
  -18.4242   14.6219   25.4221 H   0  0  0  0  0  0  0  0  0  0  0  0
  -19.9810   14.0728   26.7826 C   0  0  0  0  0  0  0  0  0  0  0  0
  -20.0673   15.0408   27.2045 H   0  0  0  0  0  0  0  0  0  0  0  0
  1  2  1  0
  2  3  1  0
  2 16  2  0
  3  4  1  0
  3  5  2  0
  5  6  1  0
  5 13  1  0
  6  7  1  0
  6  8  1  0
  8  9  2  0
  8 10  1  0
 10 11  1  0
 10 12  1  0
 10 13  1  0
 13 14  2  0
 14 15  1  0
 14 16  1  0
 16 17  1  0
M  END
$$$$
