
     RDKit          3D

 35 37  0  0  0  0  0  0  0  0999 V2000
  -19.9303   10.9139   25.3941 F   0  0  0  0  0  0  0  0  0  0  0  0
  -19.4144   12.1371   25.5801 C   0  0  0  0  0  0  0  0  0  0  0  0
  -18.4604   12.6065   24.6857 C   0  0  0  0  0  0  0  0  0  0  0  0
  -18.1519   12.0021   23.8729 H   0  0  0  0  0  0  0  0  0  0  0  0
  -17.9228   13.8757   24.8781 C   0  0  0  0  0  0  0  0  0  0  0  0
  -17.1986   14.2352   24.2008 H   0  0  0  0  0  0  0  0  0  0  0  0
  -18.3394   14.6568   25.9710 C   0  0  0  0  0  0  0  0  0  0  0  0
  -17.7935   15.9174   26.1782 N   0  0  0  0  0  0  0  0  0  0  0  0
  -16.3469   16.1419   26.3182 C   0  0  0  0  0  0  0  0  0  0  0  0
  -15.7646   15.2151   26.3329 H   0  0  0  0  0  0  0  0  0  0  0  0
  -16.0060   16.7066   25.4415 H   0  0  0  0  0  0  0  0  0  0  0  0
  -16.0526   16.9564   27.5880 C   0  0  0  0  0  0  0  0  0  0  0  0
  -14.9854   17.1840   27.6407 H   0  0  0  0  0  0  0  0  0  0  0  0
  -16.3070   16.3687   28.4777 H   0  0  0  0  0  0  0  0  0  0  0  0
  -16.8699   18.1764   27.6345 N   0  0  0  0  0  0  0  0  0  0  0  0
  -16.3741   19.4490   27.7934 C   0  0  0  0  0  0  0  0  0  0  0  0
  -17.1555   20.3818   27.8285 O   0  0  0  0  0  0  0  0  0  0  0  0
  -14.9138   19.6539   27.9219 C   0  0  0  0  0  0  0  0  0  0  0  0
  -14.5396   19.5402   28.9347 H   0  0  0  0  0  0  0  0  0  0  0  0
  -14.2211   20.7121   27.0925 C   0  0  0  0  0  0  0  0  0  0  0  0
  -14.8167   21.2899   26.3946 H   0  0  0  0  0  0  0  0  0  0  0  0
  -13.4158   21.2699   27.5548 H   0  0  0  0  0  0  0  0  0  0  0  0
  -13.9927   19.2627   26.7896 C   0  0  0  0  0  0  0  0  0  0  0  0
  -14.4284   18.8665   25.8788 H   0  0  0  0  0  0  0  0  0  0  0  0
  -13.0297   18.8366   27.0438 H   0  0  0  0  0  0  0  0  0  0  0  0
  -18.3122   17.9359   27.4994 C   0  0  0  0  0  0  0  0  0  0  0  0
  -18.6240   17.3790   28.3905 H   0  0  0  0  0  0  0  0  0  0  0  0
  -18.8766   18.8736   27.4849 H   0  0  0  0  0  0  0  0  0  0  0  0
  -18.6356   17.1232   26.2334 C   0  0  0  0  0  0  0  0  0  0  0  0
  -18.4433   17.7290   25.3402 H   0  0  0  0  0  0  0  0  0  0  0  0
  -19.7052   16.8868   26.2535 H   0  0  0  0  0  0  0  0  0  0  0  0
  -19.3213   14.1655   26.8470 C   0  0  0  0  0  0  0  0  0  0  0  0
  -19.6723   14.7670   27.6431 H   0  0  0  0  0  0  0  0  0  0  0  0
  -19.8561   12.8951   26.6556 C   0  0  0  0  0  0  0  0  0  0  0  0
  -20.5941   12.5111   27.3096 H   0  0  0  0  0  0  0  0  0  0  0  0
  1  2  1  0
  2  3  1  0
  2 34  2  0
  3  4  1  0
  3  5  2  0
  5  6  1  0
  5  7  1  0
  7  8  1  0
  7 32  2  0
  8  9  1  0
  8 29  1  0
  9 10  1  0
  9 11  1  0
  9 12  1  0
 12 13  1  0
 12 14  1  0
 12 15  1  0
 15 16  1  0
 15 26  1  0
 16 17  2  0
 16 18  1  0
 18 19  1  0
 18 20  1  0
 18 23  1  0
 20 21  1  0
 20 22  1  0
 20 23  1  0
 23 24  1  0
 23 25  1  0
 26 27  1  0
 26 28  1  0
 26 29  1  0
 29 30  1  0
 29 31  1  0
 32 33  1  0
 32 34  1  0
 34 35  1  0
M  END
$$$$
