
     RDKit          3D

 25 26  0  0  0  0  0  0  0  0999 V2000
  -21.2739   12.2184   29.2500 O   0  0  0  0  0  0  0  0  0  0  0  0
  -22.0850   12.4770   28.3634 C   0  0  0  0  0  0  0  0  0  0  0  0
  -21.6451   12.6011   27.0680 N   0  0  0  0  0  0  0  0  0  0  0  0
  -22.3932   12.8179   26.3946 H   0  0  0  0  0  0  0  0  0  0  0  0
  -20.3502   12.4707   26.5989 C   0  0  0  0  0  0  0  0  0  0  0  0
  -20.0623   12.4926   25.2817 C   0  0  0  0  0  0  0  0  0  0  0  0
  -20.6729   12.5992   24.4252 H   0  0  0  0  0  0  0  0  0  0  0  0
  -18.7163   12.3400   25.2185 N   0  0  0  0  0  0  0  0  0  0  0  0
  -17.8855   12.2932   24.0432 C   0  0  0  0  0  0  0  0  0  0  0  0
  -18.5102   12.3829   23.1514 H   0  0  0  0  0  0  0  0  0  0  0  0
  -17.3550   11.3378   24.0328 H   0  0  0  0  0  0  0  0  0  0  0  0
  -17.1776   13.1246   24.0879 H   0  0  0  0  0  0  0  0  0  0  0  0
  -18.1508   12.2230   26.4496 N   0  0  0  0  0  0  0  0  0  0  0  0
  -19.1512   12.3038   27.2909 C   0  0  0  0  0  0  0  0  0  0  0  0
  -19.0398   12.2476   28.3428 H   0  0  0  0  0  0  0  0  0  0  0  0
  -23.5063   12.6673   28.5713 C   0  0  0  0  0  0  0  0  0  0  0  0
  -24.3609   12.7015   27.5795 N   0  0  0  0  0  0  0  0  0  0  0  0
  -25.5675   12.8891   28.1063 O   0  0  0  0  0  0  0  0  0  0  0  0
  -25.4899   12.9765   29.4380 C   0  0  0  0  0  0  0  0  0  0  0  0
  -26.7479   13.1860   30.1717 C   0  0  0  0  0  0  0  0  0  0  0  0
  -26.5689   13.2508   31.2492 H   0  0  0  0  0  0  0  0  0  0  0  0
  -27.4394   12.3576   29.9906 H   0  0  0  0  0  0  0  0  0  0  0  0
  -27.2304   14.1137   29.8507 H   0  0  0  0  0  0  0  0  0  0  0  0
  -24.1996   12.8420   29.7705 C   0  0  0  0  0  0  0  0  0  0  0  0
  -23.7859   12.8620   30.7452 H   0  0  0  0  0  0  0  0  0  0  0  0
  1  2  2  0
  2  3  1  0
  2 16  1  0
  3  4  1  0
  3  5  1  0
  5  6  2  0
  5 14  1  0
  6  7  1  0
  6  8  1  0
  8  9  1  0
  8 13  1  0
  9 10  1  0
  9 11  1  0
  9 12  1  0
 13 14  2  0
 14 15  1  0
 16 17  2  0
 16 24  1  0
 17 18  1  0
 18 19  1  0
 19 20  1  0
 19 24  2  0
 20 21  1  0
 20 22  1  0
 20 23  1  0
 24 25  1  0
M  END
$$$$
