
     RDKit          3D

 19 19  0  0  0  0  0  0  0  0999 V2000
  -18.9984   13.5336   25.4639 Br  0  0  0  0  0  0  0  0  0  0  0  0
  -20.0790   12.9434   26.8667 C   0  0  0  0  0  0  0  0  0  0  0  0
  -21.4203   12.7877   26.8748 C   0  0  0  0  0  0  0  0  0  0  0  0
  -22.1551   12.9610   26.1319 H   0  0  0  0  0  0  0  0  0  0  0  0
  -21.7315   12.3426   28.1122 N   0  0  0  0  0  0  0  0  0  0  0  0
  -23.0389   12.0079   28.6408 C   0  0  0  0  0  0  0  0  0  0  0  0
  -23.7432   12.0287   27.8018 H   0  0  0  0  0  0  0  0  0  0  0  0
  -22.9781   10.9821   29.0192 H   0  0  0  0  0  0  0  0  0  0  0  0
  -23.4650   12.9635   29.7448 C   0  0  0  0  0  0  0  0  0  0  0  0
  -22.8360   12.8498   30.6354 H   0  0  0  0  0  0  0  0  0  0  0  0
  -24.5060   12.7578   30.0171 H   0  0  0  0  0  0  0  0  0  0  0  0
  -23.3828   14.3064   29.2592 O   0  0  0  0  0  0  0  0  0  0  0  0
  -23.8032   15.2469   30.2387 C   0  0  0  0  0  0  0  0  0  0  0  0
  -23.7316   16.2486   29.8073 H   0  0  0  0  0  0  0  0  0  0  0  0
  -23.1550   15.1978   31.1184 H   0  0  0  0  0  0  0  0  0  0  0  0
  -24.8427   15.0622   30.5257 H   0  0  0  0  0  0  0  0  0  0  0  0
  -20.6263   12.2148   28.8985 N   0  0  0  0  0  0  0  0  0  0  0  0
  -19.6305   12.5792   28.1317 C   0  0  0  0  0  0  0  0  0  0  0  0
  -18.6206   12.5914   28.4522 H   0  0  0  0  0  0  0  0  0  0  0  0
  1  2  1  0
  2  3  2  0
  2 18  1  0
  3  4  1  0
  3  5  1  0
  5  6  1  0
  5 17  1  0
  6  7  1  0
  6  8  1  0
  6  9  1  0
  9 10  1  0
  9 11  1  0
  9 12  1  0
 12 13  1  0
 13 14  1  0
 13 15  1  0
 13 16  1  0
 17 18  2  0
 18 19  1  0
M  END
$$$$
