
     RDKit          3D

 30 31  0  0  0  0  0  0  0  0999 V2000
  -16.4890   21.2146   25.5276 F   0  0  0  0  0  0  0  0  0  0  0  0
  -16.7187   19.8970   25.6218 C   0  0  0  0  0  0  0  0  0  0  0  0
  -15.6619   19.0157   25.4271 C   0  0  0  0  0  0  0  0  0  0  0  0
  -14.6947   19.3845   25.2049 H   0  0  0  0  0  0  0  0  0  0  0  0
  -15.9010   17.6486   25.5238 C   0  0  0  0  0  0  0  0  0  0  0  0
  -15.1184   16.9559   25.3609 H   0  0  0  0  0  0  0  0  0  0  0  0
  -17.1901   17.1831   25.8181 C   0  0  0  0  0  0  0  0  0  0  0  0
  -17.4301   15.8185   25.9132 N   0  0  0  0  0  0  0  0  0  0  0  0
  -17.4962   15.1255   27.2071 C   0  0  0  0  0  0  0  0  0  0  0  0
  -16.6367   14.4497   27.2927 H   0  0  0  0  0  0  0  0  0  0  0  0
  -17.4619   15.8171   28.0562 H   0  0  0  0  0  0  0  0  0  0  0  0
  -18.8070   14.3288   27.2999 C   0  0  0  0  0  0  0  0  0  0  0  0
  -19.6597   15.0180   27.3307 H   0  0  0  0  0  0  0  0  0  0  0  0
  -18.8229   13.7534   28.2313 H   0  0  0  0  0  0  0  0  0  0  0  0
  -19.0116   13.4638   26.1307 N   0  0  0  0  0  0  0  0  0  0  0  0
  -19.2391   12.1291   26.3271 C   0  0  0  0  0  0  0  0  0  0  0  0
  -19.1115   11.5675   27.4019 O   0  0  0  0  0  0  0  0  0  0  0  0
  -19.6370   11.4331   25.2592 N   0  0  0  0  0  0  0  0  0  0  0  0
  -18.9967   10.6822   24.9804 H   0  0  0  0  0  0  0  0  0  0  0  0
  -20.6438   11.2776   25.1736 H   0  0  0  0  0  0  0  0  0  0  0  0
  -18.9216   14.1684   24.8392 C   0  0  0  0  0  0  0  0  0  0  0  0
  -18.9733   13.4775   23.9953 H   0  0  0  0  0  0  0  0  0  0  0  0
  -19.7840   14.8422   24.7826 H   0  0  0  0  0  0  0  0  0  0  0  0
  -17.6109   14.9656   24.7310 C   0  0  0  0  0  0  0  0  0  0  0  0
  -17.5942   15.5241   23.7890 H   0  0  0  0  0  0  0  0  0  0  0  0
  -16.7668   14.2656   24.6870 H   0  0  0  0  0  0  0  0  0  0  0  0
  -18.2454   18.0907   26.0070 C   0  0  0  0  0  0  0  0  0  0  0  0
  -19.2181   17.7477   26.2361 H   0  0  0  0  0  0  0  0  0  0  0  0
  -18.0054   19.4579   25.9093 C   0  0  0  0  0  0  0  0  0  0  0  0
  -18.7849   20.1597   26.0521 H   0  0  0  0  0  0  0  0  0  0  0  0
  1  2  1  0
  2  3  1  0
  2 29  2  0
  3  4  1  0
  3  5  2  0
  5  6  1  0
  5  7  1  0
  7  8  1  0
  7 27  2  0
  8  9  1  0
  8 24  1  0
  9 10  1  0
  9 11  1  0
  9 12  1  0
 12 13  1  0
 12 14  1  0
 12 15  1  0
 15 16  1  0
 15 21  1  0
 16 17  2  0
 16 18  1  0
 18 19  1  0
 18 20  1  0
 21 22  1  0
 21 23  1  0
 21 24  1  0
 24 25  1  0
 24 26  1  0
 27 28  1  0
 27 29  1  0
 29 30  1  0
M  END
$$$$
