
     RDKit          3D

 27 28  0  0  0  0  0  0  0  0999 V2000
  -14.9069   19.3068   25.9834 O   0  0  0  0  0  0  0  0  0  0  0  0
  -14.4147   19.3570   24.6511 C   0  0  0  0  0  0  0  0  0  0  0  0
  -13.6561   20.1449   24.6047 H   0  0  0  0  0  0  0  0  0  0  0  0
  -15.2101   19.6209   23.9455 H   0  0  0  0  0  0  0  0  0  0  0  0
  -13.9316   18.4150   24.3718 H   0  0  0  0  0  0  0  0  0  0  0  0
  -15.8964   18.3945   26.2845 C   0  0  0  0  0  0  0  0  0  0  0  0
  -17.0820   18.9284   26.8092 C   0  0  0  0  0  0  0  0  0  0  0  0
  -18.1043   18.0320   27.1552 C   0  0  0  0  0  0  0  0  0  0  0  0
  -19.3542   18.3507   27.7378 N   0  0  0  0  0  0  0  0  0  0  0  0
  -20.0121   17.5664   27.8219 H   0  0  0  0  0  0  0  0  0  0  0  0
  -19.8978   19.4906   28.2403 C   0  0  0  0  0  0  0  0  0  0  0  0
  -21.0093   19.3267   28.6870 O   0  0  0  0  0  0  0  0  0  0  0  0
  -19.1639   20.7840   28.3148 C   0  0  0  0  0  0  0  0  0  0  0  0
  -19.9027   21.5635   28.5377 H   0  0  0  0  0  0  0  0  0  0  0  0
  -18.4573   20.7517   29.1516 H   0  0  0  0  0  0  0  0  0  0  0  0
  -18.4995   21.1024   27.0004 C   0  0  0  0  0  0  0  0  0  0  0  0
  -19.1271   20.8154   26.1473 H   0  0  0  0  0  0  0  0  0  0  0  0
  -18.3518   22.1870   26.9383 H   0  0  0  0  0  0  0  0  0  0  0  0
  -17.1389   20.4374   26.9172 C   0  0  0  0  0  0  0  0  0  0  0  0
  -16.5254   20.7413   27.7755 H   0  0  0  0  0  0  0  0  0  0  0  0
  -16.6708   20.8701   26.0233 H   0  0  0  0  0  0  0  0  0  0  0  0
  -17.9443   16.6553   26.9810 C   0  0  0  0  0  0  0  0  0  0  0  0
  -18.7266   15.9923   27.2475 H   0  0  0  0  0  0  0  0  0  0  0  0
  -16.7624   16.1506   26.4553 C   0  0  0  0  0  0  0  0  0  0  0  0
  -16.6444   15.1060   26.3214 H   0  0  0  0  0  0  0  0  0  0  0  0
  -15.7342   17.0176   26.1034 C   0  0  0  0  0  0  0  0  0  0  0  0
  -14.8372   16.6256   25.7032 H   0  0  0  0  0  0  0  0  0  0  0  0
  1  2  1  0
  1  6  1  0
  2  3  1  0
  2  4  1  0
  2  5  1  0
  6  7  1  0
  6 26  2  0
  7  8  2  0
  7 19  1  0
  8  9  1  0
  8 22  1  0
  9 10  1  0
  9 11  1  0
 11 12  2  0
 11 13  1  0
 13 14  1  0
 13 15  1  0
 13 16  1  0
 16 17  1  0
 16 18  1  0
 16 19  1  0
 19 20  1  0
 19 21  1  0
 22 23  1  0
 22 24  2  0
 24 25  1  0
 24 26  1  0
 26 27  1  0
M  END
$$$$
