
     RDKit          3D

 26 28  0  0  0  0  0  0  0  0999 V2000
  -21.6971   11.1307   27.2505 O   0  0  0  0  0  0  0  0  0  0  0  0
  -21.9214   12.1650   27.8711 C   0  0  0  0  0  0  0  0  0  0  0  0
  -20.8782   13.0354   28.0635 N   0  0  0  0  0  0  0  0  0  0  0  0
  -21.0810   13.9494   28.4785 H   0  0  0  0  0  0  0  0  0  0  0  0
  -19.5299   12.7480   27.6878 C   0  0  0  0  0  0  0  0  0  0  0  0
  -18.9901   12.1863   28.4473 H   0  0  0  0  0  0  0  0  0  0  0  0
  -18.7244   13.7344   26.8865 C   0  0  0  0  0  0  0  0  0  0  0  0
  -19.1968   14.6530   26.5601 H   0  0  0  0  0  0  0  0  0  0  0  0
  -17.6718   13.8357   27.1233 H   0  0  0  0  0  0  0  0  0  0  0  0
  -19.1812   12.4528   26.2548 C   0  0  0  0  0  0  0  0  0  0  0  0
  -18.4442   11.6810   26.0692 H   0  0  0  0  0  0  0  0  0  0  0  0
  -19.9707   12.5004   25.5146 H   0  0  0  0  0  0  0  0  0  0  0  0
  -23.2676   12.5291   28.3645 C   0  0  0  0  0  0  0  0  0  0  0  0
  -23.5630   12.2968   29.7214 C   0  0  0  0  0  0  0  0  0  0  0  0
  -22.8412   11.8692   30.3677 H   0  0  0  0  0  0  0  0  0  0  0  0
  -24.8175   12.6365   30.1993 C   0  0  0  0  0  0  0  0  0  0  0  0
  -25.2584   12.4733   31.4738 O   0  0  0  0  0  0  0  0  0  0  0  0
  -26.6001   12.9932   31.3669 C   0  0  0  0  0  0  0  0  0  0  0  0
  -27.3055   12.2033   31.6466 H   0  0  0  0  0  0  0  0  0  0  0  0
  -26.7099   13.8280   32.0687 H   0  0  0  0  0  0  0  0  0  0  0  0
  -26.9299   13.4583   30.0412 O   0  0  0  0  0  0  0  0  0  0  0  0
  -25.7688   13.1978   29.3838 C   0  0  0  0  0  0  0  0  0  0  0  0
  -25.5126   13.4523   28.0440 C   0  0  0  0  0  0  0  0  0  0  0  0
  -26.2569   13.8938   27.4315 H   0  0  0  0  0  0  0  0  0  0  0  0
  -24.2557   13.1192   27.5375 C   0  0  0  0  0  0  0  0  0  0  0  0
  -24.0407   13.3258   26.5202 H   0  0  0  0  0  0  0  0  0  0  0  0
  1  2  2  0
  2  3  1  0
  2 13  1  0
  3  4  1  0
  3  5  1  0
  5  6  1  0
  5  7  1  0
  5 10  1  0
  7  8  1  0
  7  9  1  0
  7 10  1  0
 10 11  1  0
 10 12  1  0
 13 14  1  0
 13 25  2  0
 14 15  1  0
 14 16  2  0
 16 17  1  0
 16 22  1  0
 17 18  1  0
 18 19  1  0
 18 20  1  0
 18 21  1  0
 21 22  1  0
 22 23  2  0
 23 24  1  0
 23 25  1  0
 25 26  1  0
M  END
$$$$
