
     RDKit          3D

 23 24  0  0  0  0  0  0  0  0999 V2000
  -22.7850   13.4466   28.6435 C   0  0  0  0  0  0  0  0  0  0  0  0
  -22.0945   14.2083   29.0114 H   0  0  0  0  0  0  0  0  0  0  0  0
  -23.2781   12.9649   29.4916 H   0  0  0  0  0  0  0  0  0  0  0  0
  -23.5275   13.8991   27.9807 H   0  0  0  0  0  0  0  0  0  0  0  0
  -22.0624   12.4536   27.8973 N   0  0  0  0  0  0  0  0  0  0  0  0
  -22.6109   11.2489   27.6846 N   0  0  0  0  0  0  0  0  0  0  0  0
  -21.7630   10.5444   26.9710 N   0  0  0  0  0  0  0  0  0  0  0  0
  -20.6839   11.3250   26.7519 C   0  0  0  0  0  0  0  0  0  0  0  0
  -20.8557   12.5208   27.3373 C   0  0  0  0  0  0  0  0  0  0  0  0
  -19.8885   13.6496   27.3473 C   0  0  0  0  0  0  0  0  0  0  0  0
  -20.4064   14.6020   27.1944 H   0  0  0  0  0  0  0  0  0  0  0  0
  -19.4282   13.6948   28.3426 H   0  0  0  0  0  0  0  0  0  0  0  0
  -18.7737   13.4067   26.2999 C   0  0  0  0  0  0  0  0  0  0  0  0
  -19.1729   13.9845   24.9386 C   0  0  0  0  0  0  0  0  0  0  0  0
  -19.0696   15.2232   24.7920 O   0  0  0  0  0  0  0  0  0  0  0  0
  -19.5376   13.1850   24.0489 O   0  0  0  0  0  0  0  0  0  0  0  0
  -18.3309   11.9216   26.2488 C   0  0  0  0  0  0  0  0  0  0  0  0
  -17.5419   11.7733   25.5026 H   0  0  0  0  0  0  0  0  0  0  0  0
  -17.8870   11.6670   27.2216 H   0  0  0  0  0  0  0  0  0  0  0  0
  -19.4919   10.9411   25.9668 C   0  0  0  0  0  0  0  0  0  0  0  0
  -19.1793    9.9214   26.2185 H   0  0  0  0  0  0  0  0  0  0  0  0
  -19.7449   10.9513   24.9010 H   0  0  0  0  0  0  0  0  0  0  0  0
  -17.9004   14.0018   26.6027 H   0  0  0  0  0  0  0  0  0  0  0  0
  1  2  1  0
  1  3  1  0
  1  4  1  0
  1  5  1  0
  5  6  1  0
  5  9  1  0
  6  7  2  0
  7  8  1  0
  8  9  2  0
  8 20  1  0
  9 10  1  0
 10 11  1  0
 10 12  1  0
 10 13  1  0
 13 14  1  0
 13 17  1  0
 13 23  1  0
 14 15  1  0
 14 16  2  0
 17 18  1  0
 17 19  1  0
 17 20  1  0
 20 21  1  0
 20 22  1  0
M  END
$$$$
