
     RDKit          3D

 20 20  0  0  0  0  0  0  0  0999 V2000
  -17.1259   16.1103   27.1652 S   0  0  0  0  0  0  0  0  0  0  0  0
  -17.9996   17.1899   27.5634 O   0  0  0  0  0  0  0  0  0  0  0  0
  -16.2279   15.4643   28.0978 O   0  0  0  0  0  0  0  0  0  0  0  0
  -16.1864   16.6795   25.8859 N   0  0  0  0  0  0  0  0  0  0  0  0
  -16.7398   16.8431   25.0419 H   0  0  0  0  0  0  0  0  0  0  0  0
  -15.5999   17.4728   26.1575 H   0  0  0  0  0  0  0  0  0  0  0  0
  -18.0906   14.8712   26.3693 C   0  0  0  0  0  0  0  0  0  0  0  0
  -17.6740   14.3243   25.1520 C   0  0  0  0  0  0  0  0  0  0  0  0
  -16.7872   14.6635   24.6823 H   0  0  0  0  0  0  0  0  0  0  0  0
  -18.4370   13.3246   24.5677 C   0  0  0  0  0  0  0  0  0  0  0  0
  -18.0343   12.8064   23.3981 F   0  0  0  0  0  0  0  0  0  0  0  0
  -19.5970   12.8366   25.1501 C   0  0  0  0  0  0  0  0  0  0  0  0
  -20.1487   12.0692   24.6711 H   0  0  0  0  0  0  0  0  0  0  0  0
  -20.0135   13.3680   26.3685 C   0  0  0  0  0  0  0  0  0  0  0  0
  -21.2374   12.8304   27.0507 C   0  0  0  0  0  0  0  0  0  0  0  0
  -21.9652   12.4644   26.3189 H   0  0  0  0  0  0  0  0  0  0  0  0
  -21.7320   13.6116   27.6371 H   0  0  0  0  0  0  0  0  0  0  0  0
  -20.9629   12.0083   27.7182 H   0  0  0  0  0  0  0  0  0  0  0  0
  -19.2550   14.3753   26.9720 C   0  0  0  0  0  0  0  0  0  0  0  0
  -19.5587   14.7739   27.9084 H   0  0  0  0  0  0  0  0  0  0  0  0
  1  2  2  0
  1  3  2  0
  1  4  1  0
  1  7  1  0
  4  5  1  0
  4  6  1  0
  7  8  1  0
  7 19  2  0
  8  9  1  0
  8 10  2  0
 10 11  1  0
 10 12  1  0
 12 13  1  0
 12 14  2  0
 14 15  1  0
 14 19  1  0
 15 16  1  0
 15 17  1  0
 15 18  1  0
 19 20  1  0
M  END
$$$$
