
     RDKit          3D

 26 26  0  0  0  0  0  0  0  0999 V2000
  -24.2143   13.2749   26.9710 S   0  0  0  0  0  0  0  0  0  0  0  0
  -24.1976   12.5024   25.7480 O   0  0  0  0  0  0  0  0  0  0  0  0
  -24.8630   14.5668   27.0450 O   0  0  0  0  0  0  0  0  0  0  0  0
  -22.6315   13.4960   27.5035 N   0  0  0  0  0  0  0  0  0  0  0  0
  -22.4973   14.2936   28.1300 H   0  0  0  0  0  0  0  0  0  0  0  0
  -21.7667   12.3222   27.7295 C   0  0  0  0  0  0  0  0  0  0  0  0
  -22.0830   11.8465   28.6644 H   0  0  0  0  0  0  0  0  0  0  0  0
  -21.8748   11.5931   26.9191 H   0  0  0  0  0  0  0  0  0  0  0  0
  -20.3051   12.7568   27.8617 C   0  0  0  0  0  0  0  0  0  0  0  0
  -20.2351   13.7164   28.3903 H   0  0  0  0  0  0  0  0  0  0  0  0
  -19.7712   12.0308   28.4880 H   0  0  0  0  0  0  0  0  0  0  0  0
  -19.5950   12.8592   26.5295 C   0  0  0  0  0  0  0  0  0  0  0  0
  -19.2437   11.6980   25.8310 C   0  0  0  0  0  0  0  0  0  0  0  0
  -19.4611   10.7448   26.2379 H   0  0  0  0  0  0  0  0  0  0  0  0
  -18.6051   11.7884   24.5965 C   0  0  0  0  0  0  0  0  0  0  0  0
  -18.3341   10.9170   24.0588 H   0  0  0  0  0  0  0  0  0  0  0  0
  -18.3289   13.0447   24.0765 C   0  0  0  0  0  0  0  0  0  0  0  0
  -17.7143   13.1333   22.8882 F   0  0  0  0  0  0  0  0  0  0  0  0
  -18.6707   14.2113   24.7451 C   0  0  0  0  0  0  0  0  0  0  0  0
  -18.4524   15.1550   24.3186 H   0  0  0  0  0  0  0  0  0  0  0  0
  -19.3074   14.1128   25.9800 C   0  0  0  0  0  0  0  0  0  0  0  0
  -19.5818   14.9966   26.4985 H   0  0  0  0  0  0  0  0  0  0  0  0
  -24.8893   12.2569   28.2655 C   0  0  0  0  0  0  0  0  0  0  0  0
  -24.3710   11.2964   28.2766 H   0  0  0  0  0  0  0  0  0  0  0  0
  -25.9486   12.0994   28.0506 H   0  0  0  0  0  0  0  0  0  0  0  0
  -24.7787   12.7759   29.2189 H   0  0  0  0  0  0  0  0  0  0  0  0
  1  2  2  0
  1  3  2  0
  1  4  1  0
  1 23  1  0
  4  5  1  0
  4  6  1  0
  6  7  1  0
  6  8  1  0
  6  9  1  0
  9 10  1  0
  9 11  1  0
  9 12  1  0
 12 13  1  0
 12 21  2  0
 13 14  1  0
 13 15  2  0
 15 16  1  0
 15 17  1  0
 17 18  1  0
 17 19  2  0
 19 20  1  0
 19 21  1  0
 21 22  1  0
 23 24  1  0
 23 25  1  0
 23 26  1  0
M  END
$$$$
