
     RDKit          3D

 24 25  0  0  0  0  0  0  0  0999 V2000
  -22.6179   14.1010   28.8495 F   0  0  0  0  0  0  0  0  0  0  0  0
  -22.9409   13.0092   29.5597 C   0  0  0  0  0  0  0  0  0  0  0  0
  -22.5840   11.7236   29.1056 C   0  0  0  0  0  0  0  0  0  0  0  0
  -21.8929   11.4894   27.9305 N   0  0  0  0  0  0  0  0  0  0  0  0
  -21.9433   10.5860   27.4692 H   0  0  0  0  0  0  0  0  0  0  0  0
  -21.0466   12.4521   27.2402 C   0  0  0  0  0  0  0  0  0  0  0  0
  -21.6783   13.1463   26.6715 H   0  0  0  0  0  0  0  0  0  0  0  0
  -20.4832   13.0336   27.9796 H   0  0  0  0  0  0  0  0  0  0  0  0
  -20.0537   11.8548   26.2811 C   0  0  0  0  0  0  0  0  0  0  0  0
  -20.0225   10.5655   26.0441 N   0  0  0  0  0  0  0  0  0  0  0  0
  -19.0166   10.3973   25.1450 N   0  0  0  0  0  0  0  0  0  0  0  0
  -18.7506    9.4704   24.7647 H   0  0  0  0  0  0  0  0  0  0  0  0
  -18.4279   11.5671   24.8206 C   0  0  0  0  0  0  0  0  0  0  0  0
  -17.6263   11.6331   24.1309 H   0  0  0  0  0  0  0  0  0  0  0  0
  -19.0793   12.5104   25.5347 C   0  0  0  0  0  0  0  0  0  0  0  0
  -18.8907   13.5542   25.5252 H   0  0  0  0  0  0  0  0  0  0  0  0
  -22.9535   10.6191   29.8771 C   0  0  0  0  0  0  0  0  0  0  0  0
  -22.7096    9.6423   29.5494 H   0  0  0  0  0  0  0  0  0  0  0  0
  -23.6446   10.8026   31.0749 C   0  0  0  0  0  0  0  0  0  0  0  0
  -23.9183    9.9601   31.6567 H   0  0  0  0  0  0  0  0  0  0  0  0
  -23.9783   12.0848   31.5162 C   0  0  0  0  0  0  0  0  0  0  0  0
  -24.5024   12.2116   32.4288 H   0  0  0  0  0  0  0  0  0  0  0  0
  -23.6252   13.1955   30.7518 C   0  0  0  0  0  0  0  0  0  0  0  0
  -23.8789   14.1728   31.0714 H   0  0  0  0  0  0  0  0  0  0  0  0
  1  2  1  0
  2  3  1  0
  2 23  2  0
  3  4  1  0
  3 17  2  0
  4  5  1  0
  4  6  1  0
  6  7  1  0
  6  8  1  0
  6  9  1  0
  9 10  2  0
  9 15  1  0
 10 11  1  0
 11 12  1  0
 11 13  1  0
 13 14  1  0
 13 15  2  0
 15 16  1  0
 17 18  1  0
 17 19  1  0
 19 20  1  0
 19 21  2  0
 21 22  1  0
 21 23  1  0
 23 24  1  0
M  END
$$$$
