
     RDKit          3D

 32 33  0  0  0  0  0  0  0  0999 V2000
  -20.1013   13.7051   25.8194 O   0  0  0  0  0  0  0  0  0  0  0  0
  -20.0976   12.5002   26.0242 C   0  0  0  0  0  0  0  0  0  0  0  0
  -19.2143   11.6144   25.4929 O   0  0  0  0  0  0  0  0  0  0  0  0
  -18.3735   12.1582   24.4729 C   0  0  0  0  0  0  0  0  0  0  0  0
  -17.7765   12.9849   24.8691 H   0  0  0  0  0  0  0  0  0  0  0  0
  -18.9750   12.4880   23.6192 H   0  0  0  0  0  0  0  0  0  0  0  0
  -17.6962   11.3690   24.1365 H   0  0  0  0  0  0  0  0  0  0  0  0
  -20.9950   11.8291   26.7967 N   0  0  0  0  0  0  0  0  0  0  0  0
  -20.8666   10.8130   26.7839 H   0  0  0  0  0  0  0  0  0  0  0  0
  -22.0560   12.3336   27.5795 C   0  0  0  0  0  0  0  0  0  0  0  0
  -23.2093   12.8995   27.0308 C   0  0  0  0  0  0  0  0  0  0  0  0
  -23.3266   12.9780   25.9827 H   0  0  0  0  0  0  0  0  0  0  0  0
  -24.2074   13.3719   27.8762 C   0  0  0  0  0  0  0  0  0  0  0  0
  -25.0818   13.8027   27.4589 H   0  0  0  0  0  0  0  0  0  0  0  0
  -24.0645   13.2887   29.2627 C   0  0  0  0  0  0  0  0  0  0  0  0
  -25.1447   13.8240   30.1757 C   0  0  0  0  0  0  0  0  0  0  0  0
  -24.9429   13.5000   31.2054 H   0  0  0  0  0  0  0  0  0  0  0  0
  -26.1085   13.3612   29.9253 H   0  0  0  0  0  0  0  0  0  0  0  0
  -25.2806   15.3248   30.1274 C   0  0  0  0  0  0  0  0  0  0  0  0
  -26.1812   15.9415   29.2670 C   0  0  0  0  0  0  0  0  0  0  0  0
  -26.8062   15.3651   28.6368 H   0  0  0  0  0  0  0  0  0  0  0  0
  -26.2639   17.3298   29.2312 C   0  0  0  0  0  0  0  0  0  0  0  0
  -26.9480   17.8084   28.5763 H   0  0  0  0  0  0  0  0  0  0  0  0
  -25.4997   18.0994   30.0031 N   0  0  0  0  0  0  0  0  0  0  0  0
  -24.6275   17.5310   30.8335 C   0  0  0  0  0  0  0  0  0  0  0  0
  -24.0272   18.1661   31.4357 H   0  0  0  0  0  0  0  0  0  0  0  0
  -24.4915   16.1492   30.9203 C   0  0  0  0  0  0  0  0  0  0  0  0
  -23.7823   15.7319   31.5880 H   0  0  0  0  0  0  0  0  0  0  0  0
  -22.9008   12.7320   29.7991 C   0  0  0  0  0  0  0  0  0  0  0  0
  -22.7775   12.6668   30.8496 H   0  0  0  0  0  0  0  0  0  0  0  0
  -21.8964   12.2564   28.9628 C   0  0  0  0  0  0  0  0  0  0  0  0
  -21.0183   11.8313   29.3751 H   0  0  0  0  0  0  0  0  0  0  0  0
  1  2  2  0
  2  3  1  0
  2  8  1  0
  3  4  1  0
  4  5  1  0
  4  6  1  0
  4  7  1  0
  8  9  1  0
  8 10  1  0
 10 11  1  0
 10 31  2  0
 11 12  1  0
 11 13  2  0
 13 14  1  0
 13 15  1  0
 15 16  1  0
 15 29  2  0
 16 17  1  0
 16 18  1  0
 16 19  1  0
 19 20  1  0
 19 27  2  0
 20 21  1  0
 20 22  2  0
 22 23  1  0
 22 24  1  0
 24 25  2  0
 25 26  1  0
 25 27  1  0
 27 28  1  0
 29 30  1  0
 29 31  1  0
 31 32  1  0
M  END
$$$$
