
     RDKit          3D

 27 28  0  0  0  0  0  0  0  0999 V2000
  -21.0408   12.2292   27.8444 O   0  0  0  0  0  0  0  0  0  0  0  0
  -22.4594   12.3116   27.8160 C   0  0  0  0  0  0  0  0  0  0  0  0
  -22.7911   12.6966   28.7856 H   0  0  0  0  0  0  0  0  0  0  0  0
  -22.9102   11.3225   27.6803 H   0  0  0  0  0  0  0  0  0  0  0  0
  -22.7998   13.0128   27.0470 H   0  0  0  0  0  0  0  0  0  0  0  0
  -20.3881   11.7471   26.7292 C   0  0  0  0  0  0  0  0  0  0  0  0
  -19.5371   12.6521   26.0791 C   0  0  0  0  0  0  0  0  0  0  0  0
  -18.8747   12.2105   24.9238 C   0  0  0  0  0  0  0  0  0  0  0  0
  -18.0129   12.9679   24.0952 N   0  0  0  0  0  0  0  0  0  0  0  0
  -17.5411   12.4385   23.3521 H   0  0  0  0  0  0  0  0  0  0  0  0
  -17.6642   14.2807   24.0462 C   0  0  0  0  0  0  0  0  0  0  0  0
  -16.9045   14.5340   23.1403 O   0  0  0  0  0  0  0  0  0  0  0  0
  -18.2311   15.3130   24.9572 C   0  0  0  0  0  0  0  0  0  0  0  0
  -17.6129   16.2129   24.8519 H   0  0  0  0  0  0  0  0  0  0  0  0
  -19.2441   15.5695   24.6280 H   0  0  0  0  0  0  0  0  0  0  0  0
  -18.1814   14.8515   26.3908 C   0  0  0  0  0  0  0  0  0  0  0  0
  -17.2589   14.2987   26.6085 H   0  0  0  0  0  0  0  0  0  0  0  0
  -18.1866   15.7340   27.0414 H   0  0  0  0  0  0  0  0  0  0  0  0
  -19.4025   14.0156   26.7232 C   0  0  0  0  0  0  0  0  0  0  0  0
  -20.3135   14.5879   26.5038 H   0  0  0  0  0  0  0  0  0  0  0  0
  -19.3639   13.8857   27.8127 H   0  0  0  0  0  0  0  0  0  0  0  0
  -19.0579   10.9127   24.4405 C   0  0  0  0  0  0  0  0  0  0  0  0
  -18.5498   10.5954   23.5665 H   0  0  0  0  0  0  0  0  0  0  0  0
  -19.9025   10.0330   25.1042 C   0  0  0  0  0  0  0  0  0  0  0  0
  -20.0377    9.0481   24.7373 H   0  0  0  0  0  0  0  0  0  0  0  0
  -20.5700   10.4455   26.2519 C   0  0  0  0  0  0  0  0  0  0  0  0
  -21.2113    9.7695   26.7520 H   0  0  0  0  0  0  0  0  0  0  0  0
  1  2  1  0
  1  6  1  0
  2  3  1  0
  2  4  1  0
  2  5  1  0
  6  7  1  0
  6 26  2  0
  7  8  2  0
  7 19  1  0
  8  9  1  0
  8 22  1  0
  9 10  1  0
  9 11  1  0
 11 12  2  0
 11 13  1  0
 13 14  1  0
 13 15  1  0
 13 16  1  0
 16 17  1  0
 16 18  1  0
 16 19  1  0
 19 20  1  0
 19 21  1  0
 22 23  1  0
 22 24  2  0
 24 25  1  0
 24 26  1  0
 26 27  1  0
M  END
$$$$
