
     RDKit          3D

 39 40  0  0  0  0  0  0  0  0999 V2000
  -21.8325   10.5981   26.9405 O   0  0  0  0  0  0  0  0  0  0  0  0
  -21.4611   11.5853   27.5673 C   0  0  0  0  0  0  0  0  0  0  0  0
  -22.3045   12.1383   28.7151 C   0  0  0  0  0  0  0  0  0  0  0  0
  -21.6534   12.1976   29.5954 H   0  0  0  0  0  0  0  0  0  0  0  0
  -22.6012   13.1724   28.5014 H   0  0  0  0  0  0  0  0  0  0  0  0
  -23.4295   11.3516   29.0698 O   0  0  0  0  0  0  0  0  0  0  0  0
  -24.4290   11.9235   29.8149 C   0  0  0  0  0  0  0  0  0  0  0  0
  -25.5254   12.6197   29.3077 C   0  0  0  0  0  0  0  0  0  0  0  0
  -25.6504   12.7607   28.2661 H   0  0  0  0  0  0  0  0  0  0  0  0
  -26.4690   13.1408   30.1874 C   0  0  0  0  0  0  0  0  0  0  0  0
  -27.3076   13.6660   29.8056 H   0  0  0  0  0  0  0  0  0  0  0  0
  -26.3175   12.9793   31.5649 C   0  0  0  0  0  0  0  0  0  0  0  0
  -27.3563   13.5157   32.5083 C   0  0  0  0  0  0  0  0  0  0  0  0
  -28.1229   12.7557   32.6888 H   0  0  0  0  0  0  0  0  0  0  0  0
  -26.9070   13.8007   33.4644 H   0  0  0  0  0  0  0  0  0  0  0  0
  -27.8349   14.4095   32.0952 H   0  0  0  0  0  0  0  0  0  0  0  0
  -25.2097   12.2894   32.0599 C   0  0  0  0  0  0  0  0  0  0  0  0
  -25.0845   12.1671   33.1044 H   0  0  0  0  0  0  0  0  0  0  0  0
  -24.2623   11.7643   31.1866 C   0  0  0  0  0  0  0  0  0  0  0  0
  -23.4160   11.2481   31.5599 H   0  0  0  0  0  0  0  0  0  0  0  0
  -20.2994   12.1921   27.2105 N   0  0  0  0  0  0  0  0  0  0  0  0
  -19.4219   11.5735   26.2063 C   0  0  0  0  0  0  0  0  0  0  0  0
  -18.5257   11.2319   26.7398 H   0  0  0  0  0  0  0  0  0  0  0  0
  -19.8818   10.6889   25.7557 H   0  0  0  0  0  0  0  0  0  0  0  0
  -19.0299   12.5575   25.1011 C   0  0  0  0  0  0  0  0  0  0  0  0
  -19.9005   12.8800   24.5206 H   0  0  0  0  0  0  0  0  0  0  0  0
  -18.2788   12.1187   24.4378 H   0  0  0  0  0  0  0  0  0  0  0  0
  -18.4162   13.8030   25.7219 N   0  0  0  0  0  0  0  0  0  0  0  0
  -17.5840   13.5075   26.2520 H   0  0  0  0  0  0  0  0  0  0  0  0
  -17.9408   14.7710   24.6779 C   0  0  0  0  0  0  0  0  0  0  0  0
  -17.4631   15.6116   25.1883 H   0  0  0  0  0  0  0  0  0  0  0  0
  -17.2126   14.2558   24.0453 H   0  0  0  0  0  0  0  0  0  0  0  0
  -18.8009   15.1056   24.0925 H   0  0  0  0  0  0  0  0  0  0  0  0
  -19.3781   14.4530   26.7014 C   0  0  0  0  0  0  0  0  0  0  0  0
  -20.2439   14.7947   26.1240 H   0  0  0  0  0  0  0  0  0  0  0  0
  -18.8659   15.3121   27.1454 H   0  0  0  0  0  0  0  0  0  0  0  0
  -19.7960   13.4475   27.7848 C   0  0  0  0  0  0  0  0  0  0  0  0
  -20.5393   13.9261   28.4241 H   0  0  0  0  0  0  0  0  0  0  0  0
  -18.9341   13.1889   28.4123 H   0  0  0  0  0  0  0  0  0  0  0  0
  1  2  2  0
  2  3  1  0
  2 21  1  0
  3  4  1  0
  3  5  1  0
  3  6  1  0
  6  7  1  0
  7  8  1  0
  7 19  2  0
  8  9  1  0
  8 10  2  0
 10 11  1  0
 10 12  1  0
 12 13  1  0
 12 17  2  0
 13 14  1  0
 13 15  1  0
 13 16  1  0
 17 18  1  0
 17 19  1  0
 19 20  1  0
 21 22  1  0
 21 37  1  0
 22 23  1  0
 22 24  1  0
 22 25  1  0
 25 26  1  0
 25 27  1  0
 25 28  1  0
 28 29  1  0
 28 30  1  0
 28 34  1  0
 30 31  1  0
 30 32  1  0
 30 33  1  0
 34 35  1  0
 34 36  1  0
 34 37  1  0
 37 38  1  0
 37 39  1  0
M  END
$$$$
