
     RDKit          3D

 14 14  0  0  0  0  0  0  0  0999 V2000
  -24.6254   12.5481   25.6644 O   0  0  0  0  0  0  0  0  0  0  0  0
  -24.8904   13.0724   26.7816 C   0  0  0  0  0  0  0  0  0  0  0  0
  -25.6334   14.0969   26.8325 O   0  0  0  0  0  0  0  0  0  0  0  0
  -24.3447   12.4980   28.0048 C   0  0  0  0  0  0  0  0  0  0  0  0
  -24.6611   12.8412   29.3088 C   0  0  0  0  0  0  0  0  0  0  0  0
  -25.6529   13.8971   29.7012 C   0  0  0  0  0  0  0  0  0  0  0  0
  -25.7262   13.9864   30.7899 H   0  0  0  0  0  0  0  0  0  0  0  0
  -26.6505   13.6497   29.3245 H   0  0  0  0  0  0  0  0  0  0  0  0
  -25.3498   14.8751   29.3125 H   0  0  0  0  0  0  0  0  0  0  0  0
  -23.9538   12.0921   30.2629 C   0  0  0  0  0  0  0  0  0  0  0  0
  -24.0681   12.2161   31.3084 H   0  0  0  0  0  0  0  0  0  0  0  0
  -23.1013   11.1836   29.7063 C   0  0  0  0  0  0  0  0  0  0  0  0
  -22.4620   10.5060   30.2103 H   0  0  0  0  0  0  0  0  0  0  0  0
  -23.1508   11.2305   27.9866 S   0  0  0  0  0  0  0  0  0  0  0  0
  1  2  1  0
  2  3  2  0
  2  4  1  0
  4  5  2  0
  4 14  1  0
  5  6  1  0
  5 10  1  0
  6  7  1  0
  6  8  1  0
  6  9  1  0
 10 11  1  0
 10 12  2  0
 12 13  1  0
 12 14  1  0
M  END
$$$$
