
     RDKit          3D

 19 19  0  0  0  0  0  0  0  0999 V2000
  -20.0897   14.8877   27.7348 O   0  0  0  0  0  0  0  0  0  0  0  0
  -19.4939   14.4394   26.7580 C   0  0  0  0  0  0  0  0  0  0  0  0
  -18.5967   15.2975   26.1251 N   0  0  0  0  0  0  0  0  0  0  0  0
  -18.6293   16.7244   26.4155 C   0  0  0  0  0  0  0  0  0  0  0  0
  -18.6364   17.2770   25.4704 H   0  0  0  0  0  0  0  0  0  0  0  0
  -17.7319   16.9852   26.9839 H   0  0  0  0  0  0  0  0  0  0  0  0
  -19.5121   17.0123   26.9914 H   0  0  0  0  0  0  0  0  0  0  0  0
  -17.5697   14.8711   25.1836 C   0  0  0  0  0  0  0  0  0  0  0  0
  -16.6437   15.4170   25.3917 H   0  0  0  0  0  0  0  0  0  0  0  0
  -17.9063   15.1053   24.1696 H   0  0  0  0  0  0  0  0  0  0  0  0
  -17.3561   13.8040   25.2717 H   0  0  0  0  0  0  0  0  0  0  0  0
  -19.6993   13.0841   26.2802 C   0  0  0  0  0  0  0  0  0  0  0  0
  -19.6337   12.7143   24.9700 C   0  0  0  0  0  0  0  0  0  0  0  0
  -19.4603   13.2806   24.0921 H   0  0  0  0  0  0  0  0  0  0  0  0
  -19.8358   11.3862   24.9480 N   0  0  0  0  0  0  0  0  0  0  0  0
  -19.8467   10.8006   24.0914 H   0  0  0  0  0  0  0  0  0  0  0  0
  -20.0228   10.8762   26.1958 N   0  0  0  0  0  0  0  0  0  0  0  0
  -19.9297   11.9041   26.9908 C   0  0  0  0  0  0  0  0  0  0  0  0
  -20.0147   11.8262   28.0462 H   0  0  0  0  0  0  0  0  0  0  0  0
  1  2  2  0
  2  3  1  0
  2 12  1  0
  3  4  1  0
  3  8  1  0
  4  5  1  0
  4  6  1  0
  4  7  1  0
  8  9  1  0
  8 10  1  0
  8 11  1  0
 12 13  2  0
 12 18  1  0
 13 14  1  0
 13 15  1  0
 15 16  1  0
 15 17  1  0
 17 18  2  0
 18 19  1  0
M  END
$$$$
