
     RDKit          3D

 29 31  0  0  0  0  0  0  0  0999 V2000
  -22.0900   13.9873   28.1261 O   0  0  0  0  0  0  0  0  0  0  0  0
  -21.5957   12.9958   27.6379 C   0  0  0  0  0  0  0  0  0  0  0  0
  -20.3448   13.0087   27.1005 N   0  0  0  0  0  0  0  0  0  0  0  0
  -20.0152   12.1312   26.6896 H   0  0  0  0  0  0  0  0  0  0  0  0
  -19.4336   14.0350   27.0120 C   0  0  0  0  0  0  0  0  0  0  0  0
  -17.8395   13.7958   26.3648 S   0  0  0  0  0  0  0  0  0  0  0  0
  -17.5312   15.4742   26.6464 C   0  0  0  0  0  0  0  0  0  0  0  0
  -18.6618   16.0685   27.2053 C   0  0  0  0  0  0  0  0  0  0  0  0
  -19.7488   15.2276   27.4092 N   0  0  0  0  0  0  0  0  0  0  0  0
  -18.6262   17.4384   27.5141 C   0  0  0  0  0  0  0  0  0  0  0  0
  -19.4811   17.8948   27.9394 H   0  0  0  0  0  0  0  0  0  0  0  0
  -17.4789   18.1771   27.2627 C   0  0  0  0  0  0  0  0  0  0  0  0
  -17.4563   19.2093   27.4964 H   0  0  0  0  0  0  0  0  0  0  0  0
  -16.3483   17.5482   26.6943 C   0  0  0  0  0  0  0  0  0  0  0  0
  -15.1627   18.1744   26.4002 O   0  0  0  0  0  0  0  0  0  0  0  0
  -14.8952   18.4559   25.0313 C   0  0  0  0  0  0  0  0  0  0  0  0
  -15.6390   19.1453   24.6179 H   0  0  0  0  0  0  0  0  0  0  0  0
  -13.9196   18.9481   24.9757 H   0  0  0  0  0  0  0  0  0  0  0  0
  -14.8370   17.5346   24.4426 H   0  0  0  0  0  0  0  0  0  0  0  0
  -16.3625   16.2011   26.3827 C   0  0  0  0  0  0  0  0  0  0  0  0
  -15.5135   15.7319   25.9586 H   0  0  0  0  0  0  0  0  0  0  0  0
  -22.2996   11.6951   27.6038 C   0  0  0  0  0  0  0  0  0  0  0  0
  -21.7652   10.9276   27.0506 H   0  0  0  0  0  0  0  0  0  0  0  0
  -23.8085   11.6259   27.6014 C   0  0  0  0  0  0  0  0  0  0  0  0
  -24.3836   12.5433   27.6586 H   0  0  0  0  0  0  0  0  0  0  0  0
  -24.2783   10.8449   27.0160 H   0  0  0  0  0  0  0  0  0  0  0  0
  -23.0450   11.2174   28.8264 C   0  0  0  0  0  0  0  0  0  0  0  0
  -22.9947   10.1628   29.0688 H   0  0  0  0  0  0  0  0  0  0  0  0
  -23.0849   11.8693   29.6928 H   0  0  0  0  0  0  0  0  0  0  0  0
  1  2  2  0
  2  3  1  0
  2 22  1  0
  3  4  1  0
  3  5  1  0
  5  6  1  0
  5  9  2  0
  6  7  1  0
  7  8  1  0
  7 20  2  0
  8  9  1  0
  8 10  2  0
 10 11  1  0
 10 12  1  0
 12 13  1  0
 12 14  2  0
 14 15  1  0
 14 20  1  0
 15 16  1  0
 16 17  1  0
 16 18  1  0
 16 19  1  0
 20 21  1  0
 22 23  1  0
 22 24  1  0
 22 27  1  0
 24 25  1  0
 24 26  1  0
 24 27  1  0
 27 28  1  0
 27 29  1  0
M  END
$$$$
