
     RDKit          3D

 14 14  0  0  0  0  0  0  0  0999 V2000
  -19.8163   10.2899   25.8290 O   0  0  0  0  0  0  0  0  0  0  0  0
  -18.8458   10.9599   25.3789 C   0  0  0  0  0  0  0  0  0  0  0  0
  -17.8680   10.3621   24.8398 O   0  0  0  0  0  0  0  0  0  0  0  0
  -18.8547   12.4139   25.4786 C   0  0  0  0  0  0  0  0  0  0  0  0
  -19.4353   13.1849   26.4719 C   0  0  0  0  0  0  0  0  0  0  0  0
  -20.1789   12.6399   27.6563 C   0  0  0  0  0  0  0  0  0  0  0  0
  -20.5475   13.4468   28.2979 H   0  0  0  0  0  0  0  0  0  0  0  0
  -19.5251   12.0084   28.2662 H   0  0  0  0  0  0  0  0  0  0  0  0
  -21.0476   12.0573   27.3319 H   0  0  0  0  0  0  0  0  0  0  0  0
  -19.2618   14.5638   26.2713 C   0  0  0  0  0  0  0  0  0  0  0  0
  -19.6360   15.3041   26.9297 H   0  0  0  0  0  0  0  0  0  0  0  0
  -18.5590   14.8564   25.1389 C   0  0  0  0  0  0  0  0  0  0  0  0
  -18.2992   15.8149   24.7706 H   0  0  0  0  0  0  0  0  0  0  0  0
  -18.0928   13.4335   24.2903 S   0  0  0  0  0  0  0  0  0  0  0  0
  1  2  1  0
  2  3  2  0
  2  4  1  0
  4  5  2  0
  4 14  1  0
  5  6  1  0
  5 10  1  0
  6  7  1  0
  6  8  1  0
  6  9  1  0
 10 11  1  0
 10 12  2  0
 12 13  1  0
 12 14  1  0
M  END
$$$$
