
     RDKit          3D

 32 33  0  0  0  0  0  0  0  0999 V2000
  -20.9383   14.2593   28.0372 O   0  0  0  0  0  0  0  0  0  0  0  0
  -20.8817   13.2386   27.3799 C   0  0  0  0  0  0  0  0  0  0  0  0
  -21.9976   12.4787   27.1712 N   0  0  0  0  0  0  0  0  0  0  0  0
  -21.8309   11.6397   26.6070 H   0  0  0  0  0  0  0  0  0  0  0  0
  -23.2885   12.7025   27.6253 C   0  0  0  0  0  0  0  0  0  0  0  0
  -23.7309   13.7301   28.3791 C   0  0  0  0  0  0  0  0  0  0  0  0
  -23.2349   14.5733   28.7824 H   0  0  0  0  0  0  0  0  0  0  0  0
  -25.0526   13.4906   28.5536 N   0  0  0  0  0  0  0  0  0  0  0  0
  -26.0057   14.2870   29.2973 C   0  0  0  0  0  0  0  0  0  0  0  0
  -25.6206   15.3116   29.3372 H   0  0  0  0  0  0  0  0  0  0  0  0
  -26.9437   14.3010   28.7315 H   0  0  0  0  0  0  0  0  0  0  0  0
  -26.2421   13.7444   30.6956 C   0  0  0  0  0  0  0  0  0  0  0  0
  -25.3155   13.7370   31.2792 H   0  0  0  0  0  0  0  0  0  0  0  0
  -26.6225   12.7176   30.6614 H   0  0  0  0  0  0  0  0  0  0  0  0
  -26.9738   14.3623   31.2245 H   0  0  0  0  0  0  0  0  0  0  0  0
  -25.4574   12.3460   27.9286 N   0  0  0  0  0  0  0  0  0  0  0  0
  -24.3751   11.8717   27.3672 C   0  0  0  0  0  0  0  0  0  0  0  0
  -24.3543   10.9784   26.7987 H   0  0  0  0  0  0  0  0  0  0  0  0
  -19.5840   12.7328   26.7676 C   0  0  0  0  0  0  0  0  0  0  0  0
  -19.2223   11.9229   27.4137 H   0  0  0  0  0  0  0  0  0  0  0  0
  -19.7734   12.2040   25.3398 C   0  0  0  0  0  0  0  0  0  0  0  0
  -19.8247   11.1101   25.3211 H   0  0  0  0  0  0  0  0  0  0  0  0
  -20.6960   12.5752   24.8806 H   0  0  0  0  0  0  0  0  0  0  0  0
  -18.5644   12.7086   24.5649 C   0  0  0  0  0  0  0  0  0  0  0  0
  -17.7129   12.0341   24.7131 H   0  0  0  0  0  0  0  0  0  0  0  0
  -18.7595   12.7815   23.4913 H   0  0  0  0  0  0  0  0  0  0  0  0
  -18.2777   14.0600   25.1948 C   0  0  0  0  0  0  0  0  0  0  0  0
  -18.9851   14.8097   24.8239 H   0  0  0  0  0  0  0  0  0  0  0  0
  -17.2653   14.4125   24.9788 H   0  0  0  0  0  0  0  0  0  0  0  0
  -18.4958   13.8136   26.6826 C   0  0  0  0  0  0  0  0  0  0  0  0
  -18.7435   14.7377   27.2143 H   0  0  0  0  0  0  0  0  0  0  0  0
  -17.5683   13.4249   27.1227 H   0  0  0  0  0  0  0  0  0  0  0  0
  1  2  2  0
  2  3  1  0
  2 19  1  0
  3  4  1  0
  3  5  1  0
  5  6  2  0
  5 17  1  0
  6  7  1  0
  6  8  1  0
  8  9  1  0
  8 16  1  0
  9 10  1  0
  9 11  1  0
  9 12  1  0
 12 13  1  0
 12 14  1  0
 12 15  1  0
 16 17  2  0
 17 18  1  0
 19 20  1  0
 19 21  1  0
 19 30  1  0
 21 22  1  0
 21 23  1  0
 21 24  1  0
 24 25  1  0
 24 26  1  0
 24 27  1  0
 27 28  1  0
 27 29  1  0
 27 30  1  0
 30 31  1  0
 30 32  1  0
M  END
$$$$
