
     RDKit          3D

 29 30  0  0  0  0  0  0  0  0999 V2000
  -20.9545   11.8849   24.8011 O   0  0  0  0  0  0  0  0  0  0  0  0
  -20.8400   12.5896   25.7904 C   0  0  0  0  0  0  0  0  0  0  0  0
  -21.8709   12.7247   26.6273 N   0  0  0  0  0  0  0  0  0  0  0  0
  -22.7596   12.9606   26.1722 H   0  0  0  0  0  0  0  0  0  0  0  0
  -21.8845   12.0968   27.4347 H   0  0  0  0  0  0  0  0  0  0  0  0
  -19.6925   13.2610   26.1219 N   0  0  0  0  0  0  0  0  0  0  0  0
  -18.4613   12.9721   25.3809 C   0  0  0  0  0  0  0  0  0  0  0  0
  -18.6337   12.2383   24.5867 H   0  0  0  0  0  0  0  0  0  0  0  0
  -17.7575   12.5253   26.0935 H   0  0  0  0  0  0  0  0  0  0  0  0
  -17.8669   14.2490   24.7872 C   0  0  0  0  0  0  0  0  0  0  0  0
  -18.5535   14.6697   24.0427 H   0  0  0  0  0  0  0  0  0  0  0  0
  -16.9315   14.0180   24.2701 H   0  0  0  0  0  0  0  0  0  0  0  0
  -17.6820   15.2845   25.8152 N   0  0  0  0  0  0  0  0  0  0  0  0
  -16.4490   15.9120   25.9639 C   0  0  0  0  0  0  0  0  0  0  0  0
  -15.4871   15.3631   25.4257 O   0  0  0  0  0  0  0  0  0  0  0  0
  -16.3117   17.1389   26.7168 C   0  0  0  0  0  0  0  0  0  0  0  0
  -15.2615   17.3208   27.5730 O   0  0  0  0  0  0  0  0  0  0  0  0
  -15.4163   18.5195   28.1775 C   0  0  0  0  0  0  0  0  0  0  0  0
  -14.6978   18.8623   28.8774 H   0  0  0  0  0  0  0  0  0  0  0  0
  -16.5552   19.1048   27.7406 C   0  0  0  0  0  0  0  0  0  0  0  0
  -16.9294   20.0473   28.0455 H   0  0  0  0  0  0  0  0  0  0  0  0
  -17.1450   18.2145   26.8119 C   0  0  0  0  0  0  0  0  0  0  0  0
  -18.0546   18.3366   26.2809 H   0  0  0  0  0  0  0  0  0  0  0  0
  -18.8825   15.5698   26.6131 C   0  0  0  0  0  0  0  0  0  0  0  0
  -18.6565   16.2113   27.4667 H   0  0  0  0  0  0  0  0  0  0  0  0
  -19.5822   16.0982   25.9554 H   0  0  0  0  0  0  0  0  0  0  0  0
  -19.5371   14.2883   27.1614 C   0  0  0  0  0  0  0  0  0  0  0  0
  -20.4928   14.5580   27.6162 H   0  0  0  0  0  0  0  0  0  0  0  0
  -18.9033   13.8503   27.9420 H   0  0  0  0  0  0  0  0  0  0  0  0
  1  2  2  0
  2  3  1  0
  2  6  1  0
  3  4  1  0
  3  5  1  0
  6  7  1  0
  6 27  1  0
  7  8  1  0
  7  9  1  0
  7 10  1  0
 10 11  1  0
 10 12  1  0
 10 13  1  0
 13 14  1  0
 13 24  1  0
 14 15  2  0
 14 16  1  0
 16 17  1  0
 16 22  2  0
 17 18  1  0
 18 19  1  0
 18 20  2  0
 20 21  1  0
 20 22  1  0
 22 23  1  0
 24 25  1  0
 24 26  1  0
 24 27  1  0
 27 28  1  0
 27 29  1  0
M  END
$$$$
