
     RDKit          3D

 29 30  0  0  0  0  0  0  0  0999 V2000
  -20.1153   19.4670   29.4757 C   0  0  0  0  0  0  0  0  0  0  0  0
  -20.4441   20.0630   28.6171 H   0  0  0  0  0  0  0  0  0  0  0  0
  -19.7684   18.4946   29.1060 H   0  0  0  0  0  0  0  0  0  0  0  0
  -19.2467   19.9585   29.9278 H   0  0  0  0  0  0  0  0  0  0  0  0
  -21.2313   19.2993   30.5016 C   0  0  0  0  0  0  0  0  0  0  0  0
  -20.7329   18.5373   31.6016 O   0  0  0  0  0  0  0  0  0  0  0  0
  -19.9697   19.0157   31.9636 H   0  0  0  0  0  0  0  0  0  0  0  0
  -22.4439   18.6583   29.9045 C   0  0  0  0  0  0  0  0  0  0  0  0
  -23.1439   19.0986   28.7861 C   0  0  0  0  0  0  0  0  0  0  0  0
  -22.9114   19.9556   28.2090 H   0  0  0  0  0  0  0  0  0  0  0  0
  -24.1503   18.3138   28.5173 N   0  0  0  0  0  0  0  0  0  0  0  0
  -24.1078   17.3436   29.4757 N   0  0  0  0  0  0  0  0  0  0  0  0
  -25.0828   16.2797   29.5054 C   0  0  0  0  0  0  0  0  0  0  0  0
  -25.7089   16.4352   30.3939 H   0  0  0  0  0  0  0  0  0  0  0  0
  -25.9806   16.2101   28.2716 C   0  0  0  0  0  0  0  0  0  0  0  0
  -26.7389   17.0001   28.2633 H   0  0  0  0  0  0  0  0  0  0  0  0
  -25.4002   16.3030   27.3454 H   0  0  0  0  0  0  0  0  0  0  0  0
  -26.6020   14.8189   28.3462 C   0  0  0  0  0  0  0  0  0  0  0  0
  -27.5765   14.8640   28.8461 H   0  0  0  0  0  0  0  0  0  0  0  0
  -26.7665   14.4026   27.3473 H   0  0  0  0  0  0  0  0  0  0  0  0
  -25.6383   13.9629   29.1689 C   0  0  0  0  0  0  0  0  0  0  0  0
  -25.2848   13.0932   28.6060 H   0  0  0  0  0  0  0  0  0  0  0  0
  -26.1480   13.5872   30.0643 H   0  0  0  0  0  0  0  0  0  0  0  0
  -24.4816   14.8764   29.5613 C   0  0  0  0  0  0  0  0  0  0  0  0
  -23.6618   14.7611   28.8411 H   0  0  0  0  0  0  0  0  0  0  0  0
  -24.0832   14.6339   30.5521 H   0  0  0  0  0  0  0  0  0  0  0  0
  -23.0760   17.5374   30.3237 C   0  0  0  0  0  0  0  0  0  0  0  0
  -22.8734   16.8912   31.1385 H   0  0  0  0  0  0  0  0  0  0  0  0
  -21.5066   20.2845   30.8971 H   0  0  0  0  0  0  0  0  0  0  0  0
  1  2  1  0
  1  3  1  0
  1  4  1  0
  1  5  1  0
  5  6  1  0
  5  8  1  0
  5 29  1  0
  6  7  1  0
  8  9  1  0
  8 27  2  0
  9 10  1  0
  9 11  2  0
 11 12  1  0
 12 13  1  0
 12 27  1  0
 13 14  1  0
 13 15  1  0
 13 24  1  0
 15 16  1  0
 15 17  1  0
 15 18  1  0
 18 19  1  0
 18 20  1  0
 18 21  1  0
 21 22  1  0
 21 23  1  0
 21 24  1  0
 24 25  1  0
 24 26  1  0
 27 28  1  0
M  END
$$$$
