
     RDKit          3D

 27 28  0  0  0  0  0  0  0  0999 V2000
  -21.4911   14.3705   28.1031 F   0  0  0  0  0  0  0  0  0  0  0  0
  -22.1533   13.3731   28.7110 C   0  0  0  0  0  0  0  0  0  0  0  0
  -21.9403   12.0306   28.3386 C   0  0  0  0  0  0  0  0  0  0  0  0
  -21.0515   11.6372   27.3463 N   0  0  0  0  0  0  0  0  0  0  0  0
  -21.3622   10.9686   26.6514 H   0  0  0  0  0  0  0  0  0  0  0  0
  -19.6894   12.1260   27.2210 C   0  0  0  0  0  0  0  0  0  0  0  0
  -19.5428   12.9717   27.9041 H   0  0  0  0  0  0  0  0  0  0  0  0
  -18.9867   11.3403   27.5230 H   0  0  0  0  0  0  0  0  0  0  0  0
  -19.3244   12.5694   25.8371 C   0  0  0  0  0  0  0  0  0  0  0  0
  -18.7109   13.7673   25.4763 C   0  0  0  0  0  0  0  0  0  0  0  0
  -18.2805   14.8848   26.3504 C   0  0  0  0  0  0  0  0  0  0  0  0
  -17.6408   14.5159   27.1592 H   0  0  0  0  0  0  0  0  0  0  0  0
  -19.1515   15.3757   26.7973 H   0  0  0  0  0  0  0  0  0  0  0  0
  -17.7149   15.6400   25.7946 H   0  0  0  0  0  0  0  0  0  0  0  0
  -18.5286   13.8278   24.1873 N   0  0  0  0  0  0  0  0  0  0  0  0
  -19.0224   12.6606   23.7065 N   0  0  0  0  0  0  0  0  0  0  0  0
  -19.0144   12.4209   22.6973 H   0  0  0  0  0  0  0  0  0  0  0  0
  -19.5093   11.8764   24.6895 C   0  0  0  0  0  0  0  0  0  0  0  0
  -19.9313   10.9243   24.5008 H   0  0  0  0  0  0  0  0  0  0  0  0
  -22.6485   11.0324   29.0102 C   0  0  0  0  0  0  0  0  0  0  0  0
  -22.4935   10.0165   28.7573 H   0  0  0  0  0  0  0  0  0  0  0  0
  -23.5563   11.3733   30.0116 C   0  0  0  0  0  0  0  0  0  0  0  0
  -24.0942   10.6110   30.5163 H   0  0  0  0  0  0  0  0  0  0  0  0
  -23.7652   12.7095   30.3609 C   0  0  0  0  0  0  0  0  0  0  0  0
  -24.4582   12.9563   31.1246 H   0  0  0  0  0  0  0  0  0  0  0  0
  -23.0569   13.7155   29.7070 C   0  0  0  0  0  0  0  0  0  0  0  0
  -23.2011   14.7331   29.9671 H   0  0  0  0  0  0  0  0  0  0  0  0
  1  2  1  0
  2  3  1  0
  2 26  2  0
  3  4  1  0
  3 20  2  0
  4  5  1  0
  4  6  1  0
  6  7  1  0
  6  8  1  0
  6  9  1  0
  9 10  1  0
  9 18  2  0
 10 11  1  0
 10 15  2  0
 11 12  1  0
 11 13  1  0
 11 14  1  0
 15 16  1  0
 16 17  1  0
 16 18  1  0
 18 19  1  0
 20 21  1  0
 20 22  1  0
 22 23  1  0
 22 24  2  0
 24 25  1  0
 24 26  1  0
 26 27  1  0
M  END
$$$$
