
     RDKit          3D

 23 24  0  0  0  0  0  0  0  0999 V2000
  -19.3095   11.2470   24.7158 N   0  0  0  0  0  0  0  0  0  0  0  0
  -18.9061   10.3788   24.3318 H   0  0  0  0  0  0  0  0  0  0  0  0
  -20.3212   11.0579   24.7533 H   0  0  0  0  0  0  0  0  0  0  0  0
  -18.8148   11.4031   26.1225 C   0  0  0  0  0  0  0  0  0  0  0  0
  -18.9298   10.4297   26.6083 H   0  0  0  0  0  0  0  0  0  0  0  0
  -17.7532   11.6648   26.0570 H   0  0  0  0  0  0  0  0  0  0  0  0
  -19.5760   12.4512   26.8393 C   0  0  0  0  0  0  0  0  0  0  0  0
  -20.8261   12.3265   27.3043 N   0  0  0  0  0  0  0  0  0  0  0  0
  -21.1411   13.5076   27.8839 C   0  0  0  0  0  0  0  0  0  0  0  0
  -20.1122   14.3168   27.7767 N   0  0  0  0  0  0  0  0  0  0  0  0
  -19.1327   13.6426   27.1221 N   0  0  0  0  0  0  0  0  0  0  0  0
  -22.4333   13.6639   28.4690 C   0  0  0  0  0  0  0  0  0  0  0  0
  -22.6820   14.5893   28.9216 H   0  0  0  0  0  0  0  0  0  0  0  0
  -23.3233   12.6289   28.4369 C   0  0  0  0  0  0  0  0  0  0  0  0
  -24.2880   12.7300   28.8670 H   0  0  0  0  0  0  0  0  0  0  0  0
  -22.9534   11.3938   27.8179 C   0  0  0  0  0  0  0  0  0  0  0  0
  -23.6572   10.5986   27.8036 H   0  0  0  0  0  0  0  0  0  0  0  0
  -21.7168   11.2397   27.2549 C   0  0  0  0  0  0  0  0  0  0  0  0
  -21.3632   10.3630   26.7790 H   0  0  0  0  0  0  0  0  0  0  0  0
  -19.0288   12.3882   23.8136 C   0  0  0  0  0  0  0  0  0  0  0  0
  -17.9469   12.5230   23.7551 H   0  0  0  0  0  0  0  0  0  0  0  0
  -19.5188   13.2759   24.2202 H   0  0  0  0  0  0  0  0  0  0  0  0
  -19.4392   12.1399   22.8320 H   0  0  0  0  0  0  0  0  0  0  0  0
  1  2  1  0
  1  3  1  0
  1  4  1  0
  1 20  1  0
  4  5  1  0
  4  6  1  0
  4  7  1  0
  7  8  1  0
  7 11  2  0
  8  9  1  0
  8 18  1  0
  9 10  2  0
  9 12  1  0
 10 11  1  0
 12 13  1  0
 12 14  2  0
 14 15  1  0
 14 16  1  0
 16 17  1  0
 16 18  2  0
 18 19  1  0
 20 21  1  0
 20 22  1  0
 20 23  1  0
M  END
$$$$
