
     RDKit          3D

 17 18  0  0  0  0  0  0  0  0999 V2000
  -23.9443   12.2390   28.7641 Br  0  0  0  0  0  0  0  0  0  0  0  0
  -22.2499   12.2903   27.9262 C   0  0  0  0  0  0  0  0  0  0  0  0
  -21.4741   13.4449   27.9977 C   0  0  0  0  0  0  0  0  0  0  0  0
  -21.8141   14.3039   28.5140 H   0  0  0  0  0  0  0  0  0  0  0  0
  -20.2382   13.4338   27.3653 C   0  0  0  0  0  0  0  0  0  0  0  0
  -19.3064   14.4593   27.3047 N   0  0  0  0  0  0  0  0  0  0  0  0
  -19.3820   15.3962   27.7191 H   0  0  0  0  0  0  0  0  0  0  0  0
  -18.2137   14.0839   26.5988 C   0  0  0  0  0  0  0  0  0  0  0  0
  -17.2897   14.8458   26.4351 O   0  0  0  0  0  0  0  0  0  0  0  0
  -18.4018   12.6471   26.1177 C   0  0  0  0  0  0  0  0  0  0  0  0
  -18.4004   12.6174   25.0257 H   0  0  0  0  0  0  0  0  0  0  0  0
  -17.6289   12.0072   26.5499 H   0  0  0  0  0  0  0  0  0  0  0  0
  -19.7547   12.3377   26.6798 C   0  0  0  0  0  0  0  0  0  0  0  0
  -20.5282   11.1840   26.6097 C   0  0  0  0  0  0  0  0  0  0  0  0
  -20.1757   10.3296   26.0889 H   0  0  0  0  0  0  0  0  0  0  0  0
  -21.7777   11.1638   27.2353 C   0  0  0  0  0  0  0  0  0  0  0  0
  -22.3760   10.2907   27.1889 H   0  0  0  0  0  0  0  0  0  0  0  0
  1  2  1  0
  2  3  1  0
  2 16  2  0
  3  4  1  0
  3  5  2  0
  5  6  1  0
  5 13  1  0
  6  7  1  0
  6  8  1  0
  8  9  2  0
  8 10  1  0
 10 11  1  0
 10 12  1  0
 10 13  1  0
 13 14  2  0
 14 15  1  0
 14 16  1  0
 16 17  1  0
M  END
$$$$
