
     RDKit          3D

 25 26  0  0  0  0  0  0  0  0999 V2000
  -16.1446   15.4708   27.8816 O   0  0  0  0  0  0  0  0  0  0  0  0
  -16.3187   16.1381   26.8641 C   0  0  0  0  0  0  0  0  0  0  0  0
  -17.0394   15.6009   25.8254 N   0  0  0  0  0  0  0  0  0  0  0  0
  -17.1339   16.2308   25.0164 H   0  0  0  0  0  0  0  0  0  0  0  0
  -17.6245   14.3491   25.7611 C   0  0  0  0  0  0  0  0  0  0  0  0
  -17.9922   13.7920   24.5893 C   0  0  0  0  0  0  0  0  0  0  0  0
  -17.9273   14.1347   23.5912 H   0  0  0  0  0  0  0  0  0  0  0  0
  -18.5166   12.5880   24.9274 N   0  0  0  0  0  0  0  0  0  0  0  0
  -19.0630   11.5838   24.0517 C   0  0  0  0  0  0  0  0  0  0  0  0
  -19.0184   11.9374   23.0189 H   0  0  0  0  0  0  0  0  0  0  0  0
  -20.1016   11.4024   24.3396 H   0  0  0  0  0  0  0  0  0  0  0  0
  -18.4701   10.6722   24.1598 H   0  0  0  0  0  0  0  0  0  0  0  0
  -18.4909   12.3712   26.2694 N   0  0  0  0  0  0  0  0  0  0  0  0
  -17.9449   13.4483   26.7762 C   0  0  0  0  0  0  0  0  0  0  0  0
  -17.7807   13.5914   27.8128 H   0  0  0  0  0  0  0  0  0  0  0  0
  -15.8161   17.4816   26.6591 C   0  0  0  0  0  0  0  0  0  0  0  0
  -14.7154   17.9114   27.2240 N   0  0  0  0  0  0  0  0  0  0  0  0
  -14.5396   19.1709   26.8348 O   0  0  0  0  0  0  0  0  0  0  0  0
  -15.5278   19.5526   26.0195 C   0  0  0  0  0  0  0  0  0  0  0  0
  -15.4768   20.9285   25.5006 C   0  0  0  0  0  0  0  0  0  0  0  0
  -16.3340   21.1371   24.8534 H   0  0  0  0  0  0  0  0  0  0  0  0
  -14.5640   21.0843   24.9176 H   0  0  0  0  0  0  0  0  0  0  0  0
  -15.4876   21.6501   26.3226 H   0  0  0  0  0  0  0  0  0  0  0  0
  -16.3572   18.5098   25.8850 C   0  0  0  0  0  0  0  0  0  0  0  0
  -17.2442   18.4695   25.3077 H   0  0  0  0  0  0  0  0  0  0  0  0
  1  2  2  0
  2  3  1  0
  2 16  1  0
  3  4  1  0
  3  5  1  0
  5  6  2  0
  5 14  1  0
  6  7  1  0
  6  8  1  0
  8  9  1  0
  8 13  1  0
  9 10  1  0
  9 11  1  0
  9 12  1  0
 13 14  2  0
 14 15  1  0
 16 17  2  0
 16 24  1  0
 17 18  1  0
 18 19  1  0
 19 20  1  0
 19 24  2  0
 20 21  1  0
 20 22  1  0
 20 23  1  0
 24 25  1  0
M  END
$$$$
