
     RDKit          3D

 17 18  0  0  0  0  0  0  0  0999 V2000
  -22.0175   13.0590   28.7312 Br  0  0  0  0  0  0  0  0  0  0  0  0
  -20.8690   12.7462   27.2619 C   0  0  0  0  0  0  0  0  0  0  0  0
  -20.1147   13.7919   26.7348 C   0  0  0  0  0  0  0  0  0  0  0  0
  -20.1704   14.7679   27.1401 H   0  0  0  0  0  0  0  0  0  0  0  0
  -19.2875   13.5125   25.6554 C   0  0  0  0  0  0  0  0  0  0  0  0
  -18.4550   14.3885   24.9747 N   0  0  0  0  0  0  0  0  0  0  0  0
  -18.3171   15.3893   25.1604 H   0  0  0  0  0  0  0  0  0  0  0  0
  -17.7973   13.7573   23.9736 C   0  0  0  0  0  0  0  0  0  0  0  0
  -17.0237   14.3577   23.2650 O   0  0  0  0  0  0  0  0  0  0  0  0
  -18.2129   12.2882   23.9541 C   0  0  0  0  0  0  0  0  0  0  0  0
  -18.6962   12.0511   23.0035 H   0  0  0  0  0  0  0  0  0  0  0  0
  -17.3440   11.6545   24.1458 H   0  0  0  0  0  0  0  0  0  0  0  0
  -19.1838   12.2559   25.0936 C   0  0  0  0  0  0  0  0  0  0  0  0
  -19.9352   11.2112   25.6208 C   0  0  0  0  0  0  0  0  0  0  0  0
  -19.8703   10.2373   25.2053 H   0  0  0  0  0  0  0  0  0  0  0  0
  -20.7784   11.4604   26.7071 C   0  0  0  0  0  0  0  0  0  0  0  0
  -21.3557   10.6726   27.1174 H   0  0  0  0  0  0  0  0  0  0  0  0
  1  2  1  0
  2  3  1  0
  2 16  2  0
  3  4  1  0
  3  5  2  0
  5  6  1  0
  5 13  1  0
  6  7  1  0
  6  8  1  0
  8  9  2  0
  8 10  1  0
 10 11  1  0
 10 12  1  0
 10 13  1  0
 13 14  2  0
 14 15  1  0
 14 16  1  0
 16 17  1  0
M  END
$$$$
