
     RDKit          3D

 19 19  0  0  0  0  0  0  0  0999 V2000
  -22.5531   11.6815   30.0285 Br  0  0  0  0  0  0  0  0  0  0  0  0
  -21.7450   12.2595   28.4484 C   0  0  0  0  0  0  0  0  0  0  0  0
  -20.4283   12.4279   28.2008 C   0  0  0  0  0  0  0  0  0  0  0  0
  -19.5727   12.2910   28.8101 H   0  0  0  0  0  0  0  0  0  0  0  0
  -20.3465   12.8601   26.9231 N   0  0  0  0  0  0  0  0  0  0  0  0
  -19.1563   13.1816   26.1611 C   0  0  0  0  0  0  0  0  0  0  0  0
  -18.5318   12.2816   26.1396 H   0  0  0  0  0  0  0  0  0  0  0  0
  -19.4810   13.4048   25.1393 H   0  0  0  0  0  0  0  0  0  0  0  0
  -18.4047   14.3626   26.7560 C   0  0  0  0  0  0  0  0  0  0  0  0
  -17.9741   14.1103   27.7321 H   0  0  0  0  0  0  0  0  0  0  0  0
  -19.0956   15.2037   26.8798 H   0  0  0  0  0  0  0  0  0  0  0  0
  -17.3676   14.7597   25.8545 O   0  0  0  0  0  0  0  0  0  0  0  0
  -16.6206   15.8572   26.3625 C   0  0  0  0  0  0  0  0  0  0  0  0
  -15.8560   16.1228   25.6279 H   0  0  0  0  0  0  0  0  0  0  0  0
  -16.1257   15.5821   27.2983 H   0  0  0  0  0  0  0  0  0  0  0  0
  -17.2708   16.7229   26.5202 H   0  0  0  0  0  0  0  0  0  0  0  0
  -21.5758   12.9788   26.3478 N   0  0  0  0  0  0  0  0  0  0  0  0
  -22.4152   12.6094   27.2812 C   0  0  0  0  0  0  0  0  0  0  0  0
  -23.4661   12.5889   27.1469 H   0  0  0  0  0  0  0  0  0  0  0  0
  1  2  1  0
  2  3  2  0
  2 18  1  0
  3  4  1  0
  3  5  1  0
  5  6  1  0
  5 17  1  0
  6  7  1  0
  6  8  1  0
  6  9  1  0
  9 10  1  0
  9 11  1  0
  9 12  1  0
 12 13  1  0
 13 14  1  0
 13 15  1  0
 13 16  1  0
 17 18  2  0
 18 19  1  0
M  END
$$$$
