
     RDKit          3D

 32 33  0  0  0  0  0  0  0  0999 V2000
  -24.5575   14.5819   30.1158 O   0  0  0  0  0  0  0  0  0  0  0  0
  -25.1931   13.6647   29.6175 C   0  0  0  0  0  0  0  0  0  0  0  0
  -26.5218   13.4406   29.7948 O   0  0  0  0  0  0  0  0  0  0  0  0
  -27.2059   14.4759   30.5042 C   0  0  0  0  0  0  0  0  0  0  0  0
  -27.1250   15.4258   29.9676 H   0  0  0  0  0  0  0  0  0  0  0  0
  -26.8077   14.5687   31.5201 H   0  0  0  0  0  0  0  0  0  0  0  0
  -28.2618   14.2008   30.5687 H   0  0  0  0  0  0  0  0  0  0  0  0
  -24.6768   12.6891   28.8211 N   0  0  0  0  0  0  0  0  0  0  0  0
  -25.3576   11.9686   28.5632 H   0  0  0  0  0  0  0  0  0  0  0  0
  -23.3621   12.5374   28.3295 C   0  0  0  0  0  0  0  0  0  0  0  0
  -22.3960   13.5434   28.4062 C   0  0  0  0  0  0  0  0  0  0  0  0
  -22.6250   14.4804   28.8401 H   0  0  0  0  0  0  0  0  0  0  0  0
  -21.1234   13.3090   27.8969 C   0  0  0  0  0  0  0  0  0  0  0  0
  -20.3912   14.0738   27.9542 H   0  0  0  0  0  0  0  0  0  0  0  0
  -20.8066   12.0829   27.3087 C   0  0  0  0  0  0  0  0  0  0  0  0
  -19.4269   11.8430   26.7378 C   0  0  0  0  0  0  0  0  0  0  0  0
  -19.4846   11.0667   25.9633 H   0  0  0  0  0  0  0  0  0  0  0  0
  -18.7730   11.4146   27.5090 H   0  0  0  0  0  0  0  0  0  0  0  0
  -18.7884   13.0860   26.1717 C   0  0  0  0  0  0  0  0  0  0  0  0
  -17.9496   13.8826   26.9422 C   0  0  0  0  0  0  0  0  0  0  0  0
  -17.7270   13.6211   27.9432 H   0  0  0  0  0  0  0  0  0  0  0  0
  -17.3959   15.0358   26.3951 C   0  0  0  0  0  0  0  0  0  0  0  0
  -16.7555   15.6499   26.9771 H   0  0  0  0  0  0  0  0  0  0  0  0
  -17.6450   15.4085   25.1417 N   0  0  0  0  0  0  0  0  0  0  0  0
  -18.4479   14.6625   24.3853 C   0  0  0  0  0  0  0  0  0  0  0  0
  -18.6337   14.9828   23.3907 H   0  0  0  0  0  0  0  0  0  0  0  0
  -19.0360   13.4977   24.8678 C   0  0  0  0  0  0  0  0  0  0  0  0
  -19.6748   12.9323   24.2392 H   0  0  0  0  0  0  0  0  0  0  0  0
  -21.7854   11.0893   27.2268 C   0  0  0  0  0  0  0  0  0  0  0  0
  -21.5597   10.1558   26.7789 H   0  0  0  0  0  0  0  0  0  0  0  0
  -23.0612   11.3132   27.7331 C   0  0  0  0  0  0  0  0  0  0  0  0
  -23.7979   10.5546   27.6722 H   0  0  0  0  0  0  0  0  0  0  0  0
  1  2  2  0
  2  3  1  0
  2  8  1  0
  3  4  1  0
  4  5  1  0
  4  6  1  0
  4  7  1  0
  8  9  1  0
  8 10  1  0
 10 11  1  0
 10 31  2  0
 11 12  1  0
 11 13  2  0
 13 14  1  0
 13 15  1  0
 15 16  1  0
 15 29  2  0
 16 17  1  0
 16 18  1  0
 16 19  1  0
 19 20  1  0
 19 27  2  0
 20 21  1  0
 20 22  2  0
 22 23  1  0
 22 24  1  0
 24 25  2  0
 25 26  1  0
 25 27  1  0
 27 28  1  0
 29 30  1  0
 29 31  1  0
 31 32  1  0
M  END
$$$$
