
     RDKit          3D

 39 40  0  0  0  0  0  0  0  0999 V2000
  -20.5168   12.2721   24.2393 O   0  0  0  0  0  0  0  0  0  0  0  0
  -19.8124   12.1490   25.2364 C   0  0  0  0  0  0  0  0  0  0  0  0
  -20.0811   11.0318   26.2434 C   0  0  0  0  0  0  0  0  0  0  0  0
  -20.8989   10.4228   25.8400 H   0  0  0  0  0  0  0  0  0  0  0  0
  -19.2167   10.3589   26.3004 H   0  0  0  0  0  0  0  0  0  0  0  0
  -20.4710   11.4661   27.5356 O   0  0  0  0  0  0  0  0  0  0  0  0
  -21.7339   11.9717   27.7110 C   0  0  0  0  0  0  0  0  0  0  0  0
  -22.9245   11.3056   27.4228 C   0  0  0  0  0  0  0  0  0  0  0  0
  -22.9206   10.3251   27.0239 H   0  0  0  0  0  0  0  0  0  0  0  0
  -24.1379   11.9435   27.6606 C   0  0  0  0  0  0  0  0  0  0  0  0
  -25.0459   11.4383   27.4482 H   0  0  0  0  0  0  0  0  0  0  0  0
  -24.1669   13.2409   28.1728 C   0  0  0  0  0  0  0  0  0  0  0  0
  -25.4802   13.9123   28.4582 C   0  0  0  0  0  0  0  0  0  0  0  0
  -25.7929   13.6969   29.4847 H   0  0  0  0  0  0  0  0  0  0  0  0
  -25.4014   14.9963   28.3313 H   0  0  0  0  0  0  0  0  0  0  0  0
  -26.2563   13.5606   27.7709 H   0  0  0  0  0  0  0  0  0  0  0  0
  -22.9677   13.9003   28.4470 C   0  0  0  0  0  0  0  0  0  0  0  0
  -22.9810   14.8873   28.8309 H   0  0  0  0  0  0  0  0  0  0  0  0
  -21.7502   13.2688   28.2130 C   0  0  0  0  0  0  0  0  0  0  0  0
  -20.8384   13.7702   28.4118 H   0  0  0  0  0  0  0  0  0  0  0  0
  -18.8037   13.0351   25.4423 N   0  0  0  0  0  0  0  0  0  0  0  0
  -18.4579   14.0144   24.4018 C   0  0  0  0  0  0  0  0  0  0  0  0
  -17.4786   13.7182   24.0044 H   0  0  0  0  0  0  0  0  0  0  0  0
  -19.1637   13.9847   23.5664 H   0  0  0  0  0  0  0  0  0  0  0  0
  -18.3889   15.4403   24.9545 C   0  0  0  0  0  0  0  0  0  0  0  0
  -19.3649   15.7805   25.3161 H   0  0  0  0  0  0  0  0  0  0  0  0
  -18.0072   16.1327   24.1986 H   0  0  0  0  0  0  0  0  0  0  0  0
  -17.4313   15.4833   26.1354 N   0  0  0  0  0  0  0  0  0  0  0  0
  -16.5061   15.1842   25.7955 H   0  0  0  0  0  0  0  0  0  0  0  0
  -17.2648   16.8764   26.6688 C   0  0  0  0  0  0  0  0  0  0  0  0
  -16.5257   16.8444   27.4738 H   0  0  0  0  0  0  0  0  0  0  0  0
  -16.9023   17.5095   25.8543 H   0  0  0  0  0  0  0  0  0  0  0  0
  -18.2314   17.2281   27.0381 H   0  0  0  0  0  0  0  0  0  0  0  0
  -17.8597   14.5089   27.2190 C   0  0  0  0  0  0  0  0  0  0  0  0
  -18.8276   14.8540   27.5982 H   0  0  0  0  0  0  0  0  0  0  0  0
  -17.1117   14.5530   28.0164 H   0  0  0  0  0  0  0  0  0  0  0  0
  -17.9635   13.0872   26.6466 C   0  0  0  0  0  0  0  0  0  0  0  0
  -18.3420   12.4314   27.4322 H   0  0  0  0  0  0  0  0  0  0  0  0
  -16.9695   12.7228   26.3589 H   0  0  0  0  0  0  0  0  0  0  0  0
  1  2  2  0
  2  3  1  0
  2 21  1  0
  3  4  1  0
  3  5  1  0
  3  6  1  0
  6  7  1  0
  7  8  1  0
  7 19  2  0
  8  9  1  0
  8 10  2  0
 10 11  1  0
 10 12  1  0
 12 13  1  0
 12 17  2  0
 13 14  1  0
 13 15  1  0
 13 16  1  0
 17 18  1  0
 17 19  1  0
 19 20  1  0
 21 22  1  0
 21 37  1  0
 22 23  1  0
 22 24  1  0
 22 25  1  0
 25 26  1  0
 25 27  1  0
 25 28  1  0
 28 29  1  0
 28 30  1  0
 28 34  1  0
 30 31  1  0
 30 32  1  0
 30 33  1  0
 34 35  1  0
 34 36  1  0
 34 37  1  0
 37 38  1  0
 37 39  1  0
M  END
$$$$
