
     RDKit          3D

 29 30  0  0  0  0  0  0  0  0999 V2000
  -19.9214   14.7776   27.7902 F   0  0  0  0  0  0  0  0  0  0  0  0
  -19.2948   13.9232   26.9670 C   0  0  0  0  0  0  0  0  0  0  0  0
  -18.7730   14.3899   25.7584 C   0  0  0  0  0  0  0  0  0  0  0  0
  -18.8858   15.8405   25.3623 C   0  0  0  0  0  0  0  0  0  0  0  0
  -19.9402   16.1440   25.3342 H   0  0  0  0  0  0  0  0  0  0  0  0
  -18.5361   15.9364   24.3254 H   0  0  0  0  0  0  0  0  0  0  0  0
  -18.1053   16.7888   26.2664 C   0  0  0  0  0  0  0  0  0  0  0  0
  -16.6474   16.4939   26.4228 C   0  0  0  0  0  0  0  0  0  0  0  0
  -16.2142   15.6024   27.1246 O   0  0  0  0  0  0  0  0  0  0  0  0
  -15.7866   17.2939   25.7468 N   0  0  0  0  0  0  0  0  0  0  0  0
  -16.1773   18.0573   25.2126 H   0  0  0  0  0  0  0  0  0  0  0  0
  -14.3571   17.1147   25.7737 C   0  0  0  0  0  0  0  0  0  0  0  0
  -13.9940   17.2935   26.7891 H   0  0  0  0  0  0  0  0  0  0  0  0
  -14.1120   16.0929   25.4732 H   0  0  0  0  0  0  0  0  0  0  0  0
  -13.9014   17.8277   25.0821 H   0  0  0  0  0  0  0  0  0  0  0  0
  -18.7918   17.5204   27.4238 C   0  0  0  0  0  0  0  0  0  0  0  0
  -18.2020   17.7537   28.3056 H   0  0  0  0  0  0  0  0  0  0  0  0
  -19.8346   17.3322   27.6479 H   0  0  0  0  0  0  0  0  0  0  0  0
  -18.4859   18.2680   26.1700 C   0  0  0  0  0  0  0  0  0  0  0  0
  -17.6925   19.0069   26.1986 H   0  0  0  0  0  0  0  0  0  0  0  0
  -19.3202   18.5555   25.5402 H   0  0  0  0  0  0  0  0  0  0  0  0
  -18.1388   13.4704   24.9222 C   0  0  0  0  0  0  0  0  0  0  0  0
  -17.7332   13.7846   23.9949 H   0  0  0  0  0  0  0  0  0  0  0  0
  -18.0361   12.1299   25.2960 C   0  0  0  0  0  0  0  0  0  0  0  0
  -17.5513   11.4392   24.6517 H   0  0  0  0  0  0  0  0  0  0  0  0
  -18.5638   11.6892   26.5092 C   0  0  0  0  0  0  0  0  0  0  0  0
  -18.4812   10.6684   26.7855 H   0  0  0  0  0  0  0  0  0  0  0  0
  -19.2001   12.5923   27.3544 C   0  0  0  0  0  0  0  0  0  0  0  0
  -19.6082   12.2770   28.2793 H   0  0  0  0  0  0  0  0  0  0  0  0
  1  2  1  0
  2  3  1  0
  2 28  2  0
  3  4  1  0
  3 22  2  0
  4  5  1  0
  4  6  1  0
  4  7  1  0
  7  8  1  0
  7 16  1  0
  7 19  1  0
  8  9  2  0
  8 10  1  0
 10 11  1  0
 10 12  1  0
 12 13  1  0
 12 14  1  0
 12 15  1  0
 16 17  1  0
 16 18  1  0
 16 19  1  0
 19 20  1  0
 19 21  1  0
 22 23  1  0
 22 24  1  0
 24 25  1  0
 24 26  2  0
 26 27  1  0
 26 28  1  0
 28 29  1  0
M  END
$$$$
