
     RDKit          3D

 18 18  0  0  0  0  0  0  0  0999 V2000
  -22.5508   11.2803   27.8260 O   0  0  0  0  0  0  0  0  0  0  0  0
  -22.5269   12.4821   27.6027 C   0  0  0  0  0  0  0  0  0  0  0  0
  -21.3917   13.2105   27.3840 O   0  0  0  0  0  0  0  0  0  0  0  0
  -20.1484   12.5003   27.4952 C   0  0  0  0  0  0  0  0  0  0  0  0
  -20.2399   11.5970   26.8828 H   0  0  0  0  0  0  0  0  0  0  0  0
  -19.9676   12.1747   28.5256 H   0  0  0  0  0  0  0  0  0  0  0  0
  -19.0106   13.3572   26.9750 C   0  0  0  0  0  0  0  0  0  0  0  0
  -18.8996   14.2676   27.5726 H   0  0  0  0  0  0  0  0  0  0  0  0
  -19.2072   13.6751   25.9459 H   0  0  0  0  0  0  0  0  0  0  0  0
  -18.0667   12.8053   26.9995 H   0  0  0  0  0  0  0  0  0  0  0  0
  -23.7292   13.2934   27.5464 C   0  0  0  0  0  0  0  0  0  0  0  0
  -24.0288   14.3854   28.3066 C   0  0  0  0  0  0  0  0  0  0  0  0
  -23.4899   14.8773   29.0750 H   0  0  0  0  0  0  0  0  0  0  0  0
  -25.2402   14.7972   27.8977 N   0  0  0  0  0  0  0  0  0  0  0  0
  -25.7554   15.6136   28.2821 H   0  0  0  0  0  0  0  0  0  0  0  0
  -25.7373   14.0141   26.9019 N   0  0  0  0  0  0  0  0  0  0  0  0
  -24.8211   13.1102   26.6965 C   0  0  0  0  0  0  0  0  0  0  0  0
  -24.9108   12.3412   25.9708 H   0  0  0  0  0  0  0  0  0  0  0  0
  1  2  2  0
  2  3  1  0
  2 11  1  0
  3  4  1  0
  4  5  1  0
  4  6  1  0
  4  7  1  0
  7  8  1  0
  7  9  1  0
  7 10  1  0
 11 12  2  0
 11 17  1  0
 12 13  1  0
 12 14  1  0
 14 15  1  0
 14 16  1  0
 16 17  2  0
 17 18  1  0
M  END
$$$$
