
     RDKit          3D

 27 27  0  0  0  0  0  0  0  0999 V2000
  -19.5110   12.6953   25.5312 S   0  0  0  0  0  0  0  0  0  0  0  0
  -19.7955   12.8491   24.1213 O   0  0  0  0  0  0  0  0  0  0  0  0
  -18.8113   11.5401   26.0494 O   0  0  0  0  0  0  0  0  0  0  0  0
  -20.9850   12.7863   26.3452 N   0  0  0  0  0  0  0  0  0  0  0  0
  -20.8651   12.8245   27.3602 H   0  0  0  0  0  0  0  0  0  0  0  0
  -21.6432   12.0674   26.0346 H   0  0  0  0  0  0  0  0  0  0  0  0
  -18.7020   14.1459   26.1044 C   0  0  0  0  0  0  0  0  0  0  0  0
  -18.9194   15.3771   25.4789 C   0  0  0  0  0  0  0  0  0  0  0  0
  -19.6050   15.4394   24.6694 H   0  0  0  0  0  0  0  0  0  0  0  0
  -18.2410   16.5154   25.8990 C   0  0  0  0  0  0  0  0  0  0  0  0
  -18.4147   17.4410   25.4102 H   0  0  0  0  0  0  0  0  0  0  0  0
  -17.3289   16.4420   26.9500 C   0  0  0  0  0  0  0  0  0  0  0  0
  -16.5429   17.6576   27.3576 C   0  0  0  0  0  0  0  0  0  0  0  0
  -15.7674   17.3945   28.0877 H   0  0  0  0  0  0  0  0  0  0  0  0
  -17.1920   18.4015   27.8355 H   0  0  0  0  0  0  0  0  0  0  0  0
  -15.9132   18.2644   26.2046 N   0  0  0  0  0  0  0  0  0  0  0  0
  -16.2476   17.9939   25.2958 H   0  0  0  0  0  0  0  0  0  0  0  0
  -14.9298   19.1470   26.3144 C   0  0  0  0  0  0  0  0  0  0  0  0
  -14.4953   19.5034   27.3995 O   0  0  0  0  0  0  0  0  0  0  0  0
  -14.4028   19.6821   25.0138 C   0  0  0  0  0  0  0  0  0  0  0  0
  -14.1361   18.8558   24.3485 H   0  0  0  0  0  0  0  0  0  0  0  0
  -15.1670   20.3014   24.5353 H   0  0  0  0  0  0  0  0  0  0  0  0
  -13.5118   20.2885   25.1983 H   0  0  0  0  0  0  0  0  0  0  0  0
  -17.0990   15.2170   27.5712 C   0  0  0  0  0  0  0  0  0  0  0  0
  -16.3960   15.1477   28.3633 H   0  0  0  0  0  0  0  0  0  0  0  0
  -17.7777   14.0780   27.1497 C   0  0  0  0  0  0  0  0  0  0  0  0
  -17.5867   13.1453   27.6209 H   0  0  0  0  0  0  0  0  0  0  0  0
  1  2  2  0
  1  3  2  0
  1  4  1  0
  1  7  1  0
  4  5  1  0
  4  6  1  0
  7  8  1  0
  7 26  2  0
  8  9  1  0
  8 10  2  0
 10 11  1  0
 10 12  1  0
 12 13  1  0
 12 24  2  0
 13 14  1  0
 13 15  1  0
 13 16  1  0
 16 17  1  0
 16 18  1  0
 18 19  2  0
 18 20  1  0
 20 21  1  0
 20 22  1  0
 20 23  1  0
 24 25  1  0
 24 26  1  0
 26 27  1  0
M  END
$$$$
