
     RDKit          3D

 26 26  0  0  0  0  0  0  0  0999 V2000
  -21.3879   14.8312   27.4059 F   0  0  0  0  0  0  0  0  0  0  0  0
  -21.6660   13.5184   27.4327 C   0  0  0  0  0  0  0  0  0  0  0  0
  -20.8137   12.5610   26.8528 C   0  0  0  0  0  0  0  0  0  0  0  0
  -19.6042   12.9182   26.2355 N   0  0  0  0  0  0  0  0  0  0  0  0
  -19.2176   12.1863   25.0062 C   0  0  0  0  0  0  0  0  0  0  0  0
  -18.3311   10.9719   25.3390 C   0  0  0  0  0  0  0  0  0  0  0  0
  -18.9180   10.1970   25.8441 H   0  0  0  0  0  0  0  0  0  0  0  0
  -17.5060   11.2458   26.0038 H   0  0  0  0  0  0  0  0  0  0  0  0
  -17.7651   10.3944   24.1643 O   0  0  0  0  0  0  0  0  0  0  0  0
  -18.5174   10.2766   23.5568 H   0  0  0  0  0  0  0  0  0  0  0  0
  -18.5466   13.0968   23.9704 C   0  0  0  0  0  0  0  0  0  0  0  0
  -18.4474   12.5693   23.0149 H   0  0  0  0  0  0  0  0  0  0  0  0
  -17.5401   13.4046   24.2686 H   0  0  0  0  0  0  0  0  0  0  0  0
  -19.1434   13.9970   23.7940 H   0  0  0  0  0  0  0  0  0  0  0  0
  -18.7702   13.9768   26.7859 C   0  0  0  0  0  0  0  0  0  0  0  0
  -19.1970   14.9607   26.5650 H   0  0  0  0  0  0  0  0  0  0  0  0
  -17.7541   13.9605   26.3810 H   0  0  0  0  0  0  0  0  0  0  0  0
  -18.6485   13.8635   27.8698 H   0  0  0  0  0  0  0  0  0  0  0  0
  -21.1159   11.2537   26.8759 N   0  0  0  0  0  0  0  0  0  0  0  0
  -22.2619   10.8700   27.4522 C   0  0  0  0  0  0  0  0  0  0  0  0
  -22.4873    9.8345   27.4570 H   0  0  0  0  0  0  0  0  0  0  0  0
  -23.1497   11.7766   28.0347 C   0  0  0  0  0  0  0  0  0  0  0  0
  -24.0453   11.4285   28.4792 H   0  0  0  0  0  0  0  0  0  0  0  0
  -22.8520   13.1369   28.0305 C   0  0  0  0  0  0  0  0  0  0  0  0
  -23.4995   13.8535   28.4651 H   0  0  0  0  0  0  0  0  0  0  0  0
  -20.1197   11.8153   24.5013 H   0  0  0  0  0  0  0  0  0  0  0  0
  1  2  1  0
  2  3  1  0
  2 24  2  0
  3  4  1  0
  3 19  2  0
  4  5  1  0
  4 15  1  0
  5  6  1  0
  5 11  1  0
  5 26  1  0
  6  7  1  0
  6  8  1  0
  6  9  1  0
  9 10  1  0
 11 12  1  0
 11 13  1  0
 11 14  1  0
 15 16  1  0
 15 17  1  0
 15 18  1  0
 19 20  1  0
 20 21  1  0
 20 22  2  0
 22 23  1  0
 22 24  1  0
 24 25  1  0
M  END
$$$$
