
     RDKit          3D

 19 19  0  0  0  0  0  0  0  0999 V2000
  -23.5406   12.3511   26.0916 O   0  0  0  0  0  0  0  0  0  0  0  0
  -22.9051   12.7221   27.0758 C   0  0  0  0  0  0  0  0  0  0  0  0
  -23.6338   13.3245   28.0996 N   0  0  0  0  0  0  0  0  0  0  0  0
  -24.9975   13.7729   27.8531 C   0  0  0  0  0  0  0  0  0  0  0  0
  -25.1020   14.8008   28.2150 H   0  0  0  0  0  0  0  0  0  0  0  0
  -25.6834   13.1212   28.4020 H   0  0  0  0  0  0  0  0  0  0  0  0
  -25.2577   13.7513   26.7921 H   0  0  0  0  0  0  0  0  0  0  0  0
  -23.1414   13.5262   29.4559 C   0  0  0  0  0  0  0  0  0  0  0  0
  -23.9406   13.2905   30.1662 H   0  0  0  0  0  0  0  0  0  0  0  0
  -22.8544   14.5753   29.5711 H   0  0  0  0  0  0  0  0  0  0  0  0
  -22.2923   12.8775   29.6803 H   0  0  0  0  0  0  0  0  0  0  0  0
  -21.4687   12.5425   27.1832 C   0  0  0  0  0  0  0  0  0  0  0  0
  -20.8182   11.3774   26.9054 C   0  0  0  0  0  0  0  0  0  0  0  0
  -21.1811   10.4295   26.6033 H   0  0  0  0  0  0  0  0  0  0  0  0
  -19.5105   11.6305   27.0821 N   0  0  0  0  0  0  0  0  0  0  0  0
  -18.7479   10.9394   26.9487 H   0  0  0  0  0  0  0  0  0  0  0  0
  -19.2846   12.9191   27.4570 N   0  0  0  0  0  0  0  0  0  0  0  0
  -20.4679   13.4617   27.5060 C   0  0  0  0  0  0  0  0  0  0  0  0
  -20.6246   14.4816   27.7560 H   0  0  0  0  0  0  0  0  0  0  0  0
  1  2  2  0
  2  3  1  0
  2 12  1  0
  3  4  1  0
  3  8  1  0
  4  5  1  0
  4  6  1  0
  4  7  1  0
  8  9  1  0
  8 10  1  0
  8 11  1  0
 12 13  2  0
 12 18  1  0
 13 14  1  0
 13 15  1  0
 15 16  1  0
 15 17  1  0
 17 18  2  0
 18 19  1  0
M  END
$$$$
