
     RDKit          3D

 26 28  0  0  0  0  0  0  0  0999 V2000
  -22.8612   10.5366   27.8198 O   0  0  0  0  0  0  0  0  0  0  0  0
  -22.1894   11.4431   28.3017 C   0  0  0  0  0  0  0  0  0  0  0  0
  -22.3974   11.7635   29.6196 N   0  0  0  0  0  0  0  0  0  0  0  0
  -21.7644   12.4377   30.0593 H   0  0  0  0  0  0  0  0  0  0  0  0
  -23.4296   11.1842   30.4200 C   0  0  0  0  0  0  0  0  0  0  0  0
  -24.4279   11.4172   30.0556 H   0  0  0  0  0  0  0  0  0  0  0  0
  -23.2736   11.0619   31.9115 C   0  0  0  0  0  0  0  0  0  0  0  0
  -22.3449   11.3822   32.3684 H   0  0  0  0  0  0  0  0  0  0  0  0
  -24.1511   11.2276   32.5252 H   0  0  0  0  0  0  0  0  0  0  0  0
  -23.2402    9.8328   31.0524 C   0  0  0  0  0  0  0  0  0  0  0  0
  -24.0950    9.1678   31.0745 H   0  0  0  0  0  0  0  0  0  0  0  0
  -22.2902    9.3307   30.9145 H   0  0  0  0  0  0  0  0  0  0  0  0
  -21.1399   12.1559   27.5409 C   0  0  0  0  0  0  0  0  0  0  0  0
  -20.9131   13.5140   27.8349 C   0  0  0  0  0  0  0  0  0  0  0  0
  -21.4824   14.0103   28.5773 H   0  0  0  0  0  0  0  0  0  0  0  0
  -19.9309   14.1939   27.1343 C   0  0  0  0  0  0  0  0  0  0  0  0
  -19.5938   15.5001   27.2945 O   0  0  0  0  0  0  0  0  0  0  0  0
  -18.5399   15.6315   26.3179 C   0  0  0  0  0  0  0  0  0  0  0  0
  -18.8257   16.4036   25.5954 H   0  0  0  0  0  0  0  0  0  0  0  0
  -17.6247   15.9501   26.8300 H   0  0  0  0  0  0  0  0  0  0  0  0
  -18.2665   14.4084   25.6024 O   0  0  0  0  0  0  0  0  0  0  0  0
  -19.1749   13.5722   26.1715 C   0  0  0  0  0  0  0  0  0  0  0  0
  -19.3606   12.2326   25.8607 C   0  0  0  0  0  0  0  0  0  0  0  0
  -18.7618   11.7674   25.1197 H   0  0  0  0  0  0  0  0  0  0  0  0
  -20.3443   11.5248   26.5524 C   0  0  0  0  0  0  0  0  0  0  0  0
  -20.4835   10.4960   26.3377 H   0  0  0  0  0  0  0  0  0  0  0  0
  1  2  2  0
  2  3  1  0
  2 13  1  0
  3  4  1  0
  3  5  1  0
  5  6  1  0
  5  7  1  0
  5 10  1  0
  7  8  1  0
  7  9  1  0
  7 10  1  0
 10 11  1  0
 10 12  1  0
 13 14  1  0
 13 25  2  0
 14 15  1  0
 14 16  2  0
 16 17  1  0
 16 22  1  0
 17 18  1  0
 18 19  1  0
 18 20  1  0
 18 21  1  0
 21 22  1  0
 22 23  2  0
 23 24  1  0
 23 25  1  0
 25 26  1  0
M  END
$$$$
