
     RDKit          3D

 20 20  0  0  0  0  0  0  0  0999 V2000
  -16.5882   14.9991   24.8226 O   0  0  0  0  0  0  0  0  0  0  0  0
  -17.5424   14.2164   24.9986 C   0  0  0  0  0  0  0  0  0  0  0  0
  -18.2007   14.2143   26.2435 N   0  0  0  0  0  0  0  0  0  0  0  0
  -17.7514   15.1263   27.2909 C   0  0  0  0  0  0  0  0  0  0  0  0
  -18.5786   15.7814   27.5802 H   0  0  0  0  0  0  0  0  0  0  0  0
  -16.9212   15.7587   26.9637 H   0  0  0  0  0  0  0  0  0  0  0  0
  -17.4122   14.5444   28.1539 H   0  0  0  0  0  0  0  0  0  0  0  0
  -19.2795   13.3346   26.4901 C   0  0  0  0  0  0  0  0  0  0  0  0
  -19.9470   13.3348   27.8372 C   0  0  0  0  0  0  0  0  0  0  0  0
  -19.2324   13.0720   28.6240 H   0  0  0  0  0  0  0  0  0  0  0  0
  -20.7634   12.6062   27.8865 H   0  0  0  0  0  0  0  0  0  0  0  0
  -20.3774   14.3159   28.0590 H   0  0  0  0  0  0  0  0  0  0  0  0
  -19.7122   12.5028   25.4948 C   0  0  0  0  0  0  0  0  0  0  0  0
  -20.5242   11.8454   25.6713 H   0  0  0  0  0  0  0  0  0  0  0  0
  -19.0934   12.4843   24.2157 C   0  0  0  0  0  0  0  0  0  0  0  0
  -19.4466   11.8239   23.4665 H   0  0  0  0  0  0  0  0  0  0  0  0
  -18.0358   13.3089   23.9707 C   0  0  0  0  0  0  0  0  0  0  0  0
  -17.3811   13.3393   22.7644 N   0  0  0  0  0  0  0  0  0  0  0  0
  -17.6598   12.7432   21.9985 H   0  0  0  0  0  0  0  0  0  0  0  0
  -16.6029   13.9878   22.6702 H   0  0  0  0  0  0  0  0  0  0  0  0
  1  2  2  0
  2  3  1  0
  2 17  1  0
  3  4  1  0
  3  8  1  0
  4  5  1  0
  4  6  1  0
  4  7  1  0
  8  9  1  0
  8 13  2  0
  9 10  1  0
  9 11  1  0
  9 12  1  0
 13 14  1  0
 13 15  1  0
 15 16  1  0
 15 17  2  0
 17 18  1  0
 18 19  1  0
 18 20  1  0
M  END
$$$$
