
     RDKit          3D

 24 25  0  0  0  0  0  0  0  0999 V2000
  -24.1481   12.8963   26.0796 F   0  0  0  0  0  0  0  0  0  0  0  0
  -23.7890   12.7345   27.3624 C   0  0  0  0  0  0  0  0  0  0  0  0
  -22.4394   12.5265   27.7113 C   0  0  0  0  0  0  0  0  0  0  0  0
  -21.4081   12.4754   26.7908 N   0  0  0  0  0  0  0  0  0  0  0  0
  -21.5687   12.1310   25.8490 H   0  0  0  0  0  0  0  0  0  0  0  0
  -20.0324   12.8825   27.0378 C   0  0  0  0  0  0  0  0  0  0  0  0
  -20.0294   13.8395   27.5750 H   0  0  0  0  0  0  0  0  0  0  0  0
  -19.5427   12.1349   27.6732 H   0  0  0  0  0  0  0  0  0  0  0  0
  -19.1874   13.0531   25.8051 C   0  0  0  0  0  0  0  0  0  0  0  0
  -18.7041   12.0194   25.1591 N   0  0  0  0  0  0  0  0  0  0  0  0
  -18.0048   12.5492   24.1204 N   0  0  0  0  0  0  0  0  0  0  0  0
  -17.5023   11.9673   23.4251 H   0  0  0  0  0  0  0  0  0  0  0  0
  -18.0529   13.8975   24.1143 C   0  0  0  0  0  0  0  0  0  0  0  0
  -17.5692   14.4845   23.3768 H   0  0  0  0  0  0  0  0  0  0  0  0
  -18.8068   14.2377   25.1820 C   0  0  0  0  0  0  0  0  0  0  0  0
  -19.0667   15.2201   25.4863 H   0  0  0  0  0  0  0  0  0  0  0  0
  -22.1199   12.3531   29.0601 C   0  0  0  0  0  0  0  0  0  0  0  0
  -21.1150   12.1807   29.3456 H   0  0  0  0  0  0  0  0  0  0  0  0
  -23.1229   12.4042   30.0284 C   0  0  0  0  0  0  0  0  0  0  0  0
  -22.8724   12.2754   31.0501 H   0  0  0  0  0  0  0  0  0  0  0  0
  -24.4533   12.6246   29.6657 C   0  0  0  0  0  0  0  0  0  0  0  0
  -25.2064   12.6627   30.4106 H   0  0  0  0  0  0  0  0  0  0  0  0
  -24.7883   12.7891   28.3228 C   0  0  0  0  0  0  0  0  0  0  0  0
  -25.7945   12.9493   28.0337 H   0  0  0  0  0  0  0  0  0  0  0  0
  1  2  1  0
  2  3  1  0
  2 23  2  0
  3  4  1  0
  3 17  2  0
  4  5  1  0
  4  6  1  0
  6  7  1  0
  6  8  1  0
  6  9  1  0
  9 10  2  0
  9 15  1  0
 10 11  1  0
 11 12  1  0
 11 13  1  0
 13 14  1  0
 13 15  2  0
 15 16  1  0
 17 18  1  0
 17 19  1  0
 19 20  1  0
 19 21  2  0
 21 22  1  0
 21 23  1  0
 23 24  1  0
M  END
$$$$
