
     RDKit          3D

 19 19  0  0  0  0  0  0  0  0999 V2000
  -20.8484   13.9886   28.0979 O   0  0  0  0  0  0  0  0  0  0  0  0
  -20.8126   13.1456   27.2130 C   0  0  0  0  0  0  0  0  0  0  0  0
  -21.6975   12.1615   27.1388 N   0  0  0  0  0  0  0  0  0  0  0  0
  -21.6329   11.4777   26.4044 H   0  0  0  0  0  0  0  0  0  0  0  0
  -22.7740   12.0217   28.0963 C   0  0  0  0  0  0  0  0  0  0  0  0
  -23.2170   11.0267   27.9785 H   0  0  0  0  0  0  0  0  0  0  0  0
  -22.3579   12.0878   29.1074 H   0  0  0  0  0  0  0  0  0  0  0  0
  -23.7781   13.0905   27.8533 C   0  0  0  0  0  0  0  0  0  0  0  0
  -23.9349   14.2399   28.5514 C   0  0  0  0  0  0  0  0  0  0  0  0
  -23.4163   14.6337   29.3875 H   0  0  0  0  0  0  0  0  0  0  0  0
  -24.9629   14.8886   27.9636 N   0  0  0  0  0  0  0  0  0  0  0  0
  -25.3369   15.8099   28.2583 H   0  0  0  0  0  0  0  0  0  0  0  0
  -25.4733   14.1877   26.9177 N   0  0  0  0  0  0  0  0  0  0  0  0
  -24.7498   13.1037   26.8577 C   0  0  0  0  0  0  0  0  0  0  0  0
  -24.9046   12.3417   26.1354 H   0  0  0  0  0  0  0  0  0  0  0  0
  -19.7436   13.1399   26.1559 C   0  0  0  0  0  0  0  0  0  0  0  0
  -20.0904   12.6437   25.2452 H   0  0  0  0  0  0  0  0  0  0  0  0
  -18.8652   12.6146   26.5383 H   0  0  0  0  0  0  0  0  0  0  0  0
  -19.4739   14.1702   25.9074 H   0  0  0  0  0  0  0  0  0  0  0  0
  1  2  2  0
  2  3  1  0
  2 16  1  0
  3  4  1  0
  3  5  1  0
  5  6  1  0
  5  7  1  0
  5  8  1  0
  8  9  2  0
  8 14  1  0
  9 10  1  0
  9 11  1  0
 11 12  1  0
 11 13  1  0
 13 14  2  0
 14 15  1  0
 16 17  1  0
 16 18  1  0
 16 19  1  0
M  END
$$$$
