
     RDKit          3D

 16 16  0  0  0  0  0  0  0  0999 V2000
  -24.6579   12.8552   27.8704 Br  0  0  0  0  0  0  0  0  0  0  0  0
  -22.8135   12.6120   28.0295 C   0  0  0  0  0  0  0  0  0  0  0  0
  -21.8769   12.7071   27.0629 C   0  0  0  0  0  0  0  0  0  0  0  0
  -21.9473   12.9369   26.0321 H   0  0  0  0  0  0  0  0  0  0  0  0
  -20.6961   12.4478   27.6705 N   0  0  0  0  0  0  0  0  0  0  0  0
  -19.3742   12.4107   27.0768 C   0  0  0  0  0  0  0  0  0  0  0  0
  -18.7278   13.0419   27.6965 H   0  0  0  0  0  0  0  0  0  0  0  0
  -19.0181   11.3764   27.1408 H   0  0  0  0  0  0  0  0  0  0  0  0
  -19.3854   12.9042   25.6387 C   0  0  0  0  0  0  0  0  0  0  0  0
  -19.7437   13.9370   25.6044 H   0  0  0  0  0  0  0  0  0  0  0  0
  -20.0235   12.2865   24.9981 H   0  0  0  0  0  0  0  0  0  0  0  0
  -18.0611   12.8926   25.1141 O   0  0  0  0  0  0  0  0  0  0  0  0
  -17.7798   11.9620   25.0658 H   0  0  0  0  0  0  0  0  0  0  0  0
  -20.8533   12.1956   28.9989 N   0  0  0  0  0  0  0  0  0  0  0  0
  -22.1409   12.2956   29.2047 C   0  0  0  0  0  0  0  0  0  0  0  0
  -22.5940   12.1519   30.1515 H   0  0  0  0  0  0  0  0  0  0  0  0
  1  2  1  0
  2  3  2  0
  2 15  1  0
  3  4  1  0
  3  5  1  0
  5  6  1  0
  5 14  1  0
  6  7  1  0
  6  8  1  0
  6  9  1  0
  9 10  1  0
  9 11  1  0
  9 12  1  0
 12 13  1  0
 14 15  2  0
 15 16  1  0
M  END
$$$$
