
     RDKit          3D

 23 24  0  0  0  0  0  0  0  0999 V2000
  -15.5055   16.6717   25.5543 N   0  0  0  0  0  0  0  0  0  0  0  0
  -14.9432   15.8165   25.4261 H   0  0  0  0  0  0  0  0  0  0  0  0
  -15.7144   16.9804   24.5943 H   0  0  0  0  0  0  0  0  0  0  0  0
  -16.7975   16.2813   26.2071 C   0  0  0  0  0  0  0  0  0  0  0  0
  -16.5659   16.0418   27.2491 H   0  0  0  0  0  0  0  0  0  0  0  0
  -17.4521   17.1583   26.1619 H   0  0  0  0  0  0  0  0  0  0  0  0
  -17.4122   15.1247   25.5170 C   0  0  0  0  0  0  0  0  0  0  0  0
  -18.5000   14.4597   25.9280 N   0  0  0  0  0  0  0  0  0  0  0  0
  -18.7186   13.4805   25.0205 C   0  0  0  0  0  0  0  0  0  0  0  0
  -17.7956   13.5559   24.0893 N   0  0  0  0  0  0  0  0  0  0  0  0
  -16.9817   14.5942   24.4083 N   0  0  0  0  0  0  0  0  0  0  0  0
  -19.8267   12.6015   25.2103 C   0  0  0  0  0  0  0  0  0  0  0  0
  -19.9979   11.8327   24.5012 H   0  0  0  0  0  0  0  0  0  0  0  0
  -20.6427   12.7610   26.2934 C   0  0  0  0  0  0  0  0  0  0  0  0
  -21.4701   12.1150   26.4485 H   0  0  0  0  0  0  0  0  0  0  0  0
  -20.3819   13.8098   27.2301 C   0  0  0  0  0  0  0  0  0  0  0  0
  -21.0278   13.9207   28.0658 H   0  0  0  0  0  0  0  0  0  0  0  0
  -19.3207   14.6538   27.0531 C   0  0  0  0  0  0  0  0  0  0  0  0
  -19.0574   15.4529   27.6952 H   0  0  0  0  0  0  0  0  0  0  0  0
  -14.7184   17.7029   26.2703 C   0  0  0  0  0  0  0  0  0  0  0  0
  -14.4684   17.3188   27.2613 H   0  0  0  0  0  0  0  0  0  0  0  0
  -15.3219   18.6111   26.3362 H   0  0  0  0  0  0  0  0  0  0  0  0
  -13.8118   17.8867   25.6891 H   0  0  0  0  0  0  0  0  0  0  0  0
  1  2  1  0
  1  3  1  0
  1  4  1  0
  1 20  1  0
  4  5  1  0
  4  6  1  0
  4  7  1  0
  7  8  1  0
  7 11  2  0
  8  9  1  0
  8 18  1  0
  9 10  2  0
  9 12  1  0
 10 11  1  0
 12 13  1  0
 12 14  2  0
 14 15  1  0
 14 16  1  0
 16 17  1  0
 16 18  2  0
 18 19  1  0
 20 21  1  0
 20 22  1  0
 20 23  1  0
M  END
$$$$
