
     RDKit          3D

 24 24  0  0  0  0  0  0  0  0999 V2000
  -17.5385   14.7133   24.4204 O   0  0  0  0  0  0  0  0  0  0  0  0
  -18.2137   14.6430   25.4398 C   0  0  0  0  0  0  0  0  0  0  0  0
  -18.2055   15.5766   26.4296 O   0  0  0  0  0  0  0  0  0  0  0  0
  -17.3369   16.6926   26.1968 C   0  0  0  0  0  0  0  0  0  0  0  0
  -16.3565   16.3345   25.8649 H   0  0  0  0  0  0  0  0  0  0  0  0
  -17.7718   17.3444   25.4311 H   0  0  0  0  0  0  0  0  0  0  0  0
  -17.1901   17.4566   27.4981 C   0  0  0  0  0  0  0  0  0  0  0  0
  -16.7788   16.8102   28.2811 H   0  0  0  0  0  0  0  0  0  0  0  0
  -18.1666   17.8043   27.8519 H   0  0  0  0  0  0  0  0  0  0  0  0
  -16.5317   18.3209   27.3716 H   0  0  0  0  0  0  0  0  0  0  0  0
  -19.0637   13.5968   25.6898 N   0  0  0  0  0  0  0  0  0  0  0  0
  -19.2204   12.5043   24.7303 C   0  0  0  0  0  0  0  0  0  0  0  0
  -20.2241   12.6102   24.3023 H   0  0  0  0  0  0  0  0  0  0  0  0
  -18.4935   12.5800   23.9152 H   0  0  0  0  0  0  0  0  0  0  0  0
  -19.0946   11.1520   25.4319 C   0  0  0  0  0  0  0  0  0  0  0  0
  -18.0749   10.9912   25.8027 H   0  0  0  0  0  0  0  0  0  0  0  0
  -19.3299   10.3429   24.7329 H   0  0  0  0  0  0  0  0  0  0  0  0
  -20.0111   11.0599   26.5323 O   0  0  0  0  0  0  0  0  0  0  0  0
  -19.7446   12.0824   27.5042 C   0  0  0  0  0  0  0  0  0  0  0  0
  -20.4567   11.9560   28.3257 H   0  0  0  0  0  0  0  0  0  0  0  0
  -18.7352   11.9351   27.9077 H   0  0  0  0  0  0  0  0  0  0  0  0
  -19.8952   13.4747   26.8892 C   0  0  0  0  0  0  0  0  0  0  0  0
  -19.6568   14.2413   27.6316 H   0  0  0  0  0  0  0  0  0  0  0  0
  -20.9303   13.6284   26.5633 H   0  0  0  0  0  0  0  0  0  0  0  0
  1  2  2  0
  2  3  1  0
  2 11  1  0
  3  4  1  0
  4  5  1  0
  4  6  1  0
  4  7  1  0
  7  8  1  0
  7  9  1  0
  7 10  1  0
 11 12  1  0
 11 22  1  0
 12 13  1  0
 12 14  1  0
 12 15  1  0
 15 16  1  0
 15 17  1  0
 15 18  1  0
 18 19  1  0
 19 20  1  0
 19 21  1  0
 19 22  1  0
 22 23  1  0
 22 24  1  0
M  END
$$$$
