
     RDKit          3D

 27 27  0  0  0  0  0  0  0  0999 V2000
  -15.1072   17.1958   26.0153 S   0  0  0  0  0  0  0  0  0  0  0  0
  -15.5325   15.8275   25.8176 O   0  0  0  0  0  0  0  0  0  0  0  0
  -14.4269   17.9433   24.9804 O   0  0  0  0  0  0  0  0  0  0  0  0
  -14.1080   17.2111   27.3736 N   0  0  0  0  0  0  0  0  0  0  0  0
  -14.1175   18.1154   27.8511 H   0  0  0  0  0  0  0  0  0  0  0  0
  -13.1683   16.8642   27.1661 H   0  0  0  0  0  0  0  0  0  0  0  0
  -16.4803   18.1370   26.5776 C   0  0  0  0  0  0  0  0  0  0  0  0
  -16.4098   19.5318   26.6411 C   0  0  0  0  0  0  0  0  0  0  0  0
  -15.5274   20.0269   26.3161 H   0  0  0  0  0  0  0  0  0  0  0  0
  -17.4769   20.2740   27.1339 C   0  0  0  0  0  0  0  0  0  0  0  0
  -17.4049   21.3316   27.1793 H   0  0  0  0  0  0  0  0  0  0  0  0
  -18.6330   19.6340   27.5764 C   0  0  0  0  0  0  0  0  0  0  0  0
  -19.7588   20.4313   28.1751 C   0  0  0  0  0  0  0  0  0  0  0  0
  -20.7085   20.2014   27.6765 H   0  0  0  0  0  0  0  0  0  0  0  0
  -19.5855   21.5073   28.0513 H   0  0  0  0  0  0  0  0  0  0  0  0
  -19.8898   20.1425   29.5870 N   0  0  0  0  0  0  0  0  0  0  0  0
  -19.2603   20.6084   30.2175 H   0  0  0  0  0  0  0  0  0  0  0  0
  -20.7977   19.2990   30.0585 C   0  0  0  0  0  0  0  0  0  0  0  0
  -21.5821   18.7136   29.3268 O   0  0  0  0  0  0  0  0  0  0  0  0
  -20.7983   19.1286   31.5507 C   0  0  0  0  0  0  0  0  0  0  0  0
  -19.7919   18.8812   31.9005 H   0  0  0  0  0  0  0  0  0  0  0  0
  -21.1300   20.0563   32.0257 H   0  0  0  0  0  0  0  0  0  0  0  0
  -21.4779   18.3186   31.8293 H   0  0  0  0  0  0  0  0  0  0  0  0
  -18.7068   18.2442   27.5261 C   0  0  0  0  0  0  0  0  0  0  0  0
  -19.5773   17.7464   27.8737 H   0  0  0  0  0  0  0  0  0  0  0  0
  -17.6380   17.5020   27.0337 C   0  0  0  0  0  0  0  0  0  0  0  0
  -17.6981   16.4416   27.0108 H   0  0  0  0  0  0  0  0  0  0  0  0
  1  2  2  0
  1  3  2  0
  1  4  1  0
  1  7  1  0
  4  5  1  0
  4  6  1  0
  7  8  1  0
  7 26  2  0
  8  9  1  0
  8 10  2  0
 10 11  1  0
 10 12  1  0
 12 13  1  0
 12 24  2  0
 13 14  1  0
 13 15  1  0
 13 16  1  0
 16 17  1  0
 16 18  1  0
 18 19  2  0
 18 20  1  0
 20 21  1  0
 20 22  1  0
 20 23  1  0
 24 25  1  0
 24 26  1  0
 26 27  1  0
M  END
$$$$
