
     RDKit          3D

 26 26  0  0  0  0  0  0  0  0999 V2000
  -24.4230   12.7506   26.3326 F   0  0  0  0  0  0  0  0  0  0  0  0
  -24.1022   13.5058   27.3948 C   0  0  0  0  0  0  0  0  0  0  0  0
  -22.8659   13.3821   28.0549 C   0  0  0  0  0  0  0  0  0  0  0  0
  -21.8796   12.4803   27.6243 N   0  0  0  0  0  0  0  0  0  0  0  0
  -20.5649   13.0375   27.2275 C   0  0  0  0  0  0  0  0  0  0  0  0
  -20.3057   12.8309   25.7236 C   0  0  0  0  0  0  0  0  0  0  0  0
  -19.7585   13.6845   25.3091 H   0  0  0  0  0  0  0  0  0  0  0  0
  -21.2409   12.7355   25.1633 H   0  0  0  0  0  0  0  0  0  0  0  0
  -19.5341   11.6569   25.4780 O   0  0  0  0  0  0  0  0  0  0  0  0
  -20.1895   10.9422   25.3862 H   0  0  0  0  0  0  0  0  0  0  0  0
  -19.4136   12.4775   28.0719 C   0  0  0  0  0  0  0  0  0  0  0  0
  -18.4960   13.0448   27.8791 H   0  0  0  0  0  0  0  0  0  0  0  0
  -19.1932   11.4308   27.8431 H   0  0  0  0  0  0  0  0  0  0  0  0
  -19.6363   12.5563   29.1405 H   0  0  0  0  0  0  0  0  0  0  0  0
  -22.1451   11.0497   27.5804 C   0  0  0  0  0  0  0  0  0  0  0  0
  -22.1260   10.6209   28.5878 H   0  0  0  0  0  0  0  0  0  0  0  0
  -21.4106   10.5072   26.9780 H   0  0  0  0  0  0  0  0  0  0  0  0
  -23.1129   10.8396   27.1094 H   0  0  0  0  0  0  0  0  0  0  0  0
  -22.5687   14.1353   29.1250 N   0  0  0  0  0  0  0  0  0  0  0  0
  -23.4827   15.0063   29.5706 C   0  0  0  0  0  0  0  0  0  0  0  0
  -23.2334   15.5893   30.4197 H   0  0  0  0  0  0  0  0  0  0  0  0
  -24.7288   15.1646   28.9611 C   0  0  0  0  0  0  0  0  0  0  0  0
  -25.4215   15.8656   29.3480 H   0  0  0  0  0  0  0  0  0  0  0  0
  -25.0550   14.4002   27.8439 C   0  0  0  0  0  0  0  0  0  0  0  0
  -25.9890   14.4949   27.3535 H   0  0  0  0  0  0  0  0  0  0  0  0
  -20.5496   14.1178   27.4256 H   0  0  0  0  0  0  0  0  0  0  0  0
  1  2  1  0
  2  3  1  0
  2 24  2  0
  3  4  1  0
  3 19  2  0
  4  5  1  0
  4 15  1  0
  5  6  1  0
  5 11  1  0
  5 26  1  0
  6  7  1  0
  6  8  1  0
  6  9  1  0
  9 10  1  0
 11 12  1  0
 11 13  1  0
 11 14  1  0
 15 16  1  0
 15 17  1  0
 15 18  1  0
 19 20  1  0
 20 21  1  0
 20 22  2  0
 22 23  1  0
 22 24  1  0
 24 25  1  0
M  END
$$$$
