
     RDKit          3D

 29 30  0  0  0  0  0  0  0  0999 V2000
  -19.3267   10.0254   25.8057 O   0  0  0  0  0  0  0  0  0  0  0  0
  -18.9747   10.8740   25.0029 C   0  0  0  0  0  0  0  0  0  0  0  0
  -18.4384   10.4996   23.8394 N   0  0  0  0  0  0  0  0  0  0  0  0
  -17.6134   11.0406   23.5581 H   0  0  0  0  0  0  0  0  0  0  0  0
  -18.4636    9.4986   23.6301 H   0  0  0  0  0  0  0  0  0  0  0  0
  -19.1063   12.2222   25.2088 N   0  0  0  0  0  0  0  0  0  0  0  0
  -19.8942   12.6927   26.3516 C   0  0  0  0  0  0  0  0  0  0  0  0
  -20.2706   11.8570   26.9507 H   0  0  0  0  0  0  0  0  0  0  0  0
  -20.7639   13.2218   25.9434 H   0  0  0  0  0  0  0  0  0  0  0  0
  -19.0733   13.6341   27.2326 C   0  0  0  0  0  0  0  0  0  0  0  0
  -18.2293   13.0911   27.6747 H   0  0  0  0  0  0  0  0  0  0  0  0
  -19.6890   14.0019   28.0581 H   0  0  0  0  0  0  0  0  0  0  0  0
  -18.4949   14.7360   26.4488 N   0  0  0  0  0  0  0  0  0  0  0  0
  -18.6790   16.0549   26.8521 C   0  0  0  0  0  0  0  0  0  0  0  0
  -19.5665   16.2546   27.6820 O   0  0  0  0  0  0  0  0  0  0  0  0
  -17.8719   17.1284   26.3163 C   0  0  0  0  0  0  0  0  0  0  0  0
  -16.5511   16.9318   26.0232 O   0  0  0  0  0  0  0  0  0  0  0  0
  -16.0367   18.1066   25.5974 C   0  0  0  0  0  0  0  0  0  0  0  0
  -15.0197   18.1709   25.3056 H   0  0  0  0  0  0  0  0  0  0  0  0
  -16.9961   19.0601   25.6279 C   0  0  0  0  0  0  0  0  0  0  0  0
  -16.8764   20.0752   25.3513 H   0  0  0  0  0  0  0  0  0  0  0  0
  -18.1762   18.4411   26.1048 C   0  0  0  0  0  0  0  0  0  0  0  0
  -19.1230   18.8877   26.2728 H   0  0  0  0  0  0  0  0  0  0  0  0
  -17.7360   14.3072   25.2657 C   0  0  0  0  0  0  0  0  0  0  0  0
  -17.4745   15.1520   24.6261 H   0  0  0  0  0  0  0  0  0  0  0  0
  -16.8109   13.8475   25.6318 H   0  0  0  0  0  0  0  0  0  0  0  0
  -18.5204   13.3020   24.4020 C   0  0  0  0  0  0  0  0  0  0  0  0
  -17.8515   12.9181   23.6286 H   0  0  0  0  0  0  0  0  0  0  0  0
  -19.3556   13.8097   23.9046 H   0  0  0  0  0  0  0  0  0  0  0  0
  1  2  2  0
  2  3  1  0
  2  6  1  0
  3  4  1  0
  3  5  1  0
  6  7  1  0
  6 27  1  0
  7  8  1  0
  7  9  1  0
  7 10  1  0
 10 11  1  0
 10 12  1  0
 10 13  1  0
 13 14  1  0
 13 24  1  0
 14 15  2  0
 14 16  1  0
 16 17  1  0
 16 22  2  0
 17 18  1  0
 18 19  1  0
 18 20  2  0
 20 21  1  0
 20 22  1  0
 22 23  1  0
 24 25  1  0
 24 26  1  0
 24 27  1  0
 27 28  1  0
 27 29  1  0
M  END
$$$$
