
     RDKit          3D

 26 26  0  0  0  0  0  0  0  0999 V2000
  -18.4222   12.0689   25.4341 S   0  0  0  0  0  0  0  0  0  0  0  0
  -18.1728   10.6531   25.2725 O   0  0  0  0  0  0  0  0  0  0  0  0
  -17.8084   12.8319   26.5001 O   0  0  0  0  0  0  0  0  0  0  0  0
  -20.0831   12.3252   25.5486 N   0  0  0  0  0  0  0  0  0  0  0  0
  -20.6600   11.5927   25.1275 H   0  0  0  0  0  0  0  0  0  0  0  0
  -20.6367   13.0056   26.7348 C   0  0  0  0  0  0  0  0  0  0  0  0
  -19.7967   13.3771   27.3321 H   0  0  0  0  0  0  0  0  0  0  0  0
  -21.2560   13.8610   26.4434 H   0  0  0  0  0  0  0  0  0  0  0  0
  -21.4517   12.0228   27.5789 C   0  0  0  0  0  0  0  0  0  0  0  0
  -21.6173   11.0877   27.0282 H   0  0  0  0  0  0  0  0  0  0  0  0
  -20.8704   11.7472   28.4680 H   0  0  0  0  0  0  0  0  0  0  0  0
  -22.7813   12.5886   28.0279 C   0  0  0  0  0  0  0  0  0  0  0  0
  -22.8335   13.8315   28.6698 C   0  0  0  0  0  0  0  0  0  0  0  0
  -21.9429   14.3735   28.8555 H   0  0  0  0  0  0  0  0  0  0  0  0
  -24.0571   14.3635   29.0694 C   0  0  0  0  0  0  0  0  0  0  0  0
  -24.1093   15.3028   29.5562 H   0  0  0  0  0  0  0  0  0  0  0  0
  -25.2149   13.6417   28.8172 C   0  0  0  0  0  0  0  0  0  0  0  0
  -26.3936   14.1525   29.2012 F   0  0  0  0  0  0  0  0  0  0  0  0
  -25.1921   12.4104   28.1783 C   0  0  0  0  0  0  0  0  0  0  0  0
  -26.0935   11.8873   27.9942 H   0  0  0  0  0  0  0  0  0  0  0  0
  -23.9644   11.8841   27.7834 C   0  0  0  0  0  0  0  0  0  0  0  0
  -23.9329   10.9474   27.2865 H   0  0  0  0  0  0  0  0  0  0  0  0
  -18.0388   12.8823   23.8982 C   0  0  0  0  0  0  0  0  0  0  0  0
  -18.5445   12.3661   23.0803 H   0  0  0  0  0  0  0  0  0  0  0  0
  -16.9576   12.8304   23.7517 H   0  0  0  0  0  0  0  0  0  0  0  0
  -18.3536   13.9253   23.9610 H   0  0  0  0  0  0  0  0  0  0  0  0
  1  2  2  0
  1  3  2  0
  1  4  1  0
  1 23  1  0
  4  5  1  0
  4  6  1  0
  6  7  1  0
  6  8  1  0
  6  9  1  0
  9 10  1  0
  9 11  1  0
  9 12  1  0
 12 13  1  0
 12 21  2  0
 13 14  1  0
 13 15  2  0
 15 16  1  0
 15 17  1  0
 17 18  1  0
 17 19  2  0
 19 20  1  0
 19 21  1  0
 21 22  1  0
 23 24  1  0
 23 25  1  0
 23 26  1  0
M  END
$$$$
