
     RDKit          3D

 26 27  0  0  0  0  0  0  0  0999 V2000
  -24.1930   13.6570   28.5414 O   0  0  0  0  0  0  0  0  0  0  0  0
  -23.7521   13.1257   29.5686 C   0  0  0  0  0  0  0  0  0  0  0  0
  -23.0087   11.9417   29.4712 N   0  0  0  0  0  0  0  0  0  0  0  0
  -22.7227   11.3422   28.1704 C   0  0  0  0  0  0  0  0  0  0  0  0
  -22.5455   10.2694   28.3124 H   0  0  0  0  0  0  0  0  0  0  0  0
  -23.5940   11.4466   27.5148 H   0  0  0  0  0  0  0  0  0  0  0  0
  -21.5330   11.9847   27.5694 C   0  0  0  0  0  0  0  0  0  0  0  0
  -20.8019   11.2553   26.7235 O   0  0  0  0  0  0  0  0  0  0  0  0
  -19.7603   11.9705   26.2788 N   0  0  0  0  0  0  0  0  0  0  0  0
  -19.8314   13.1312   26.8332 C   0  0  0  0  0  0  0  0  0  0  0  0
  -18.8268   14.1773   26.5520 C   0  0  0  0  0  0  0  0  0  0  0  0
  -18.9245   15.0151   27.2505 H   0  0  0  0  0  0  0  0  0  0  0  0
  -18.9549   14.5677   25.5367 H   0  0  0  0  0  0  0  0  0  0  0  0
  -17.8107   13.7801   26.6446 H   0  0  0  0  0  0  0  0  0  0  0  0
  -20.9403   13.1847   27.6653 C   0  0  0  0  0  0  0  0  0  0  0  0
  -21.2589   14.0013   28.2598 H   0  0  0  0  0  0  0  0  0  0  0  0
  -22.5012   11.2801   30.5709 N   0  0  0  0  0  0  0  0  0  0  0  0
  -22.7011   11.7506   31.7624 C   0  0  0  0  0  0  0  0  0  0  0  0
  -22.1415   11.0122   32.9453 C   0  0  0  0  0  0  0  0  0  0  0  0
  -21.0611   10.8900   32.8174 H   0  0  0  0  0  0  0  0  0  0  0  0
  -22.6066   10.0233   33.0047 H   0  0  0  0  0  0  0  0  0  0  0  0
  -22.3282   11.5483   33.8790 H   0  0  0  0  0  0  0  0  0  0  0  0
  -23.4410   12.9527   31.9598 C   0  0  0  0  0  0  0  0  0  0  0  0
  -23.5844   13.3137   32.9456 H   0  0  0  0  0  0  0  0  0  0  0  0
  -23.9532   13.6265   30.8901 C   0  0  0  0  0  0  0  0  0  0  0  0
  -24.5066   14.5211   31.0031 H   0  0  0  0  0  0  0  0  0  0  0  0
  1  2  2  0
  2  3  1  0
  2 25  1  0
  3  4  1  0
  3 17  1  0
  4  5  1  0
  4  6  1  0
  4  7  1  0
  7  8  1  0
  7 15  2  0
  8  9  1  0
  9 10  2  0
 10 11  1  0
 10 15  1  0
 11 12  1  0
 11 13  1  0
 11 14  1  0
 15 16  1  0
 17 18  2  0
 18 19  1  0
 18 23  1  0
 19 20  1  0
 19 21  1  0
 19 22  1  0
 23 24  1  0
 23 25  2  0
 25 26  1  0
M  END
$$$$
