
     RDKit          3D

 30 31  0  0  0  0  0  0  0  0999 V2000
  -18.6919   20.6363   27.1823 F   0  0  0  0  0  0  0  0  0  0  0  0
  -18.5720   19.3285   26.9121 C   0  0  0  0  0  0  0  0  0  0  0  0
  -19.5645   18.7031   26.1671 C   0  0  0  0  0  0  0  0  0  0  0  0
  -20.4008   19.2546   25.8245 H   0  0  0  0  0  0  0  0  0  0  0  0
  -19.4402   17.3458   25.8880 C   0  0  0  0  0  0  0  0  0  0  0  0
  -20.1910   16.8415   25.3397 H   0  0  0  0  0  0  0  0  0  0  0  0
  -18.3246   16.6356   26.3528 C   0  0  0  0  0  0  0  0  0  0  0  0
  -18.2003   15.2802   26.0761 N   0  0  0  0  0  0  0  0  0  0  0  0
  -18.0261   14.2794   27.1375 C   0  0  0  0  0  0  0  0  0  0  0  0
  -17.0185   13.8529   27.0620 H   0  0  0  0  0  0  0  0  0  0  0  0
  -18.1320   14.7077   28.1403 H   0  0  0  0  0  0  0  0  0  0  0  0
  -19.0816   13.1733   26.9827 C   0  0  0  0  0  0  0  0  0  0  0  0
  -20.0808   13.5833   27.1741 H   0  0  0  0  0  0  0  0  0  0  0  0
  -18.9059   12.3899   27.7271 H   0  0  0  0  0  0  0  0  0  0  0  0
  -19.1101   12.6236   25.6210 N   0  0  0  0  0  0  0  0  0  0  0  0
  -18.9767   11.2727   25.4501 C   0  0  0  0  0  0  0  0  0  0  0  0
  -18.6594   10.5018   26.3401 O   0  0  0  0  0  0  0  0  0  0  0  0
  -19.2306   10.8030   24.2262 N   0  0  0  0  0  0  0  0  0  0  0  0
  -20.2151   10.8627   23.9455 H   0  0  0  0  0  0  0  0  0  0  0  0
  -18.5078   10.9682   23.5224 H   0  0  0  0  0  0  0  0  0  0  0  0
  -19.2641   13.6409   24.5656 C   0  0  0  0  0  0  0  0  0  0  0  0
  -19.1748   13.2072   23.5675 H   0  0  0  0  0  0  0  0  0  0  0  0
  -20.2726   14.0571   24.6685 H   0  0  0  0  0  0  0  0  0  0  0  0
  -18.2095   14.7514   24.7058 C   0  0  0  0  0  0  0  0  0  0  0  0
  -18.3805   15.5220   23.9466 H   0  0  0  0  0  0  0  0  0  0  0  0
  -17.2164   14.3325   24.4985 H   0  0  0  0  0  0  0  0  0  0  0  0
  -17.3346   17.2858   27.1081 C   0  0  0  0  0  0  0  0  0  0  0  0
  -16.4875   16.7587   27.4558 H   0  0  0  0  0  0  0  0  0  0  0  0
  -17.4604   18.6432   27.3874 C   0  0  0  0  0  0  0  0  0  0  0  0
  -16.7243   19.1542   27.9510 H   0  0  0  0  0  0  0  0  0  0  0  0
  1  2  1  0
  2  3  1  0
  2 29  2  0
  3  4  1  0
  3  5  2  0
  5  6  1  0
  5  7  1  0
  7  8  1  0
  7 27  2  0
  8  9  1  0
  8 24  1  0
  9 10  1  0
  9 11  1  0
  9 12  1  0
 12 13  1  0
 12 14  1  0
 12 15  1  0
 15 16  1  0
 15 21  1  0
 16 17  2  0
 16 18  1  0
 18 19  1  0
 18 20  1  0
 21 22  1  0
 21 23  1  0
 21 24  1  0
 24 25  1  0
 24 26  1  0
 27 28  1  0
 27 29  1  0
 29 30  1  0
M  END
$$$$
