
     RDKit          3D

 23 24  0  0  0  0  0  0  0  0999 V2000
  -22.2358   11.9179   28.5243 N   0  0  0  0  0  0  0  0  0  0  0  0
  -22.1213   10.9337   28.2379 H   0  0  0  0  0  0  0  0  0  0  0  0
  -22.3903   11.8665   29.5413 H   0  0  0  0  0  0  0  0  0  0  0  0
  -20.9333   12.6220   28.2885 C   0  0  0  0  0  0  0  0  0  0  0  0
  -21.1434   13.6951   28.3204 H   0  0  0  0  0  0  0  0  0  0  0  0
  -20.2706   12.3461   29.1158 H   0  0  0  0  0  0  0  0  0  0  0  0
  -20.3471   12.2309   26.9864 C   0  0  0  0  0  0  0  0  0  0  0  0
  -19.6673   13.0399   26.1631 N   0  0  0  0  0  0  0  0  0  0  0  0
  -19.3153   12.2919   25.0922 C   0  0  0  0  0  0  0  0  0  0  0  0
  -19.7637   11.0698   25.2665 N   0  0  0  0  0  0  0  0  0  0  0  0
  -20.4074   11.0408   26.4612 N   0  0  0  0  0  0  0  0  0  0  0  0
  -18.5743   12.9054   24.0381 C   0  0  0  0  0  0  0  0  0  0  0  0
  -18.2997   12.3210   23.1977 H   0  0  0  0  0  0  0  0  0  0  0  0
  -18.2336   14.2246   24.1257 C   0  0  0  0  0  0  0  0  0  0  0  0
  -17.6834   14.6951   23.3499 H   0  0  0  0  0  0  0  0  0  0  0  0
  -18.6207   14.9828   25.2750 C   0  0  0  0  0  0  0  0  0  0  0  0
  -18.3456   16.0073   25.3276 H   0  0  0  0  0  0  0  0  0  0  0  0
  -19.3318   14.3996   26.2870 C   0  0  0  0  0  0  0  0  0  0  0  0
  -19.6566   14.8858   27.1692 H   0  0  0  0  0  0  0  0  0  0  0  0
  -23.4123   12.5165   27.8513 C   0  0  0  0  0  0  0  0  0  0  0  0
  -23.2363   12.5031   26.7737 H   0  0  0  0  0  0  0  0  0  0  0  0
  -23.5373   13.5367   28.2213 H   0  0  0  0  0  0  0  0  0  0  0  0
  -24.2823   11.9071   28.1065 H   0  0  0  0  0  0  0  0  0  0  0  0
  1  2  1  0
  1  3  1  0
  1  4  1  0
  1 20  1  0
  4  5  1  0
  4  6  1  0
  4  7  1  0
  7  8  1  0
  7 11  2  0
  8  9  1  0
  8 18  1  0
  9 10  2  0
  9 12  1  0
 10 11  1  0
 12 13  1  0
 12 14  2  0
 14 15  1  0
 14 16  1  0
 16 17  1  0
 16 18  2  0
 18 19  1  0
 20 21  1  0
 20 22  1  0
 20 23  1  0
M  END
$$$$
