
     RDKit          3D

 27 27  0  0  0  0  0  0  0  0999 V2000
  -19.0939   12.1220   26.5645 S   0  0  0  0  0  0  0  0  0  0  0  0
  -18.8067   13.3165   25.8009 O   0  0  0  0  0  0  0  0  0  0  0  0
  -18.1730   11.6056   27.5533 O   0  0  0  0  0  0  0  0  0  0  0  0
  -19.3747   10.8828   25.4560 N   0  0  0  0  0  0  0  0  0  0  0  0
  -20.2310   11.0321   24.9170 H   0  0  0  0  0  0  0  0  0  0  0  0
  -19.3154    9.9572   25.8877 H   0  0  0  0  0  0  0  0  0  0  0  0
  -20.6767   12.2953   27.3076 C   0  0  0  0  0  0  0  0  0  0  0  0
  -21.6136   11.2600   27.2379 C   0  0  0  0  0  0  0  0  0  0  0  0
  -21.3522   10.3488   26.7577 H   0  0  0  0  0  0  0  0  0  0  0  0
  -22.8837   11.4154   27.7809 C   0  0  0  0  0  0  0  0  0  0  0  0
  -23.5841   10.6210   27.7153 H   0  0  0  0  0  0  0  0  0  0  0  0
  -23.2417   12.6115   28.3999 C   0  0  0  0  0  0  0  0  0  0  0  0
  -24.6379   12.8054   28.9240 C   0  0  0  0  0  0  0  0  0  0  0  0
  -24.6353   12.8992   30.0170 H   0  0  0  0  0  0  0  0  0  0  0  0
  -25.2712   11.9439   28.6791 H   0  0  0  0  0  0  0  0  0  0  0  0
  -25.2330   13.9948   28.3538 N   0  0  0  0  0  0  0  0  0  0  0  0
  -25.6478   13.9158   27.4413 H   0  0  0  0  0  0  0  0  0  0  0  0
  -25.2444   15.1583   28.9896 C   0  0  0  0  0  0  0  0  0  0  0  0
  -24.7527   15.2965   30.0997 O   0  0  0  0  0  0  0  0  0  0  0  0
  -25.9147   16.2828   28.2532 C   0  0  0  0  0  0  0  0  0  0  0  0
  -25.4976   16.3730   27.2461 H   0  0  0  0  0  0  0  0  0  0  0  0
  -26.9888   16.0880   28.1854 H   0  0  0  0  0  0  0  0  0  0  0  0
  -25.7524   17.2225   28.7881 H   0  0  0  0  0  0  0  0  0  0  0  0
  -22.3175   13.6513   28.4641 C   0  0  0  0  0  0  0  0  0  0  0  0
  -22.5850   14.5711   28.9209 H   0  0  0  0  0  0  0  0  0  0  0  0
  -21.0468   13.4954   27.9196 C   0  0  0  0  0  0  0  0  0  0  0  0
  -20.3525   14.2983   27.9618 H   0  0  0  0  0  0  0  0  0  0  0  0
  1  2  2  0
  1  3  2  0
  1  4  1  0
  1  7  1  0
  4  5  1  0
  4  6  1  0
  7  8  1  0
  7 26  2  0
  8  9  1  0
  8 10  2  0
 10 11  1  0
 10 12  1  0
 12 13  1  0
 12 24  2  0
 13 14  1  0
 13 15  1  0
 13 16  1  0
 16 17  1  0
 16 18  1  0
 18 19  2  0
 18 20  1  0
 20 21  1  0
 20 22  1  0
 20 23  1  0
 24 25  1  0
 24 26  1  0
 26 27  1  0
M  END
$$$$
