
     RDKit          3D

 24 25  0  0  0  0  0  0  0  0999 V2000
  -19.6211   11.6977   25.4563 S   0  0  0  0  0  0  0  0  0  0  0  0
  -20.4566   12.4793   24.5664 O   0  0  0  0  0  0  0  0  0  0  0  0
  -19.9107   10.2955   25.7081 O   0  0  0  0  0  0  0  0  0  0  0  0
  -19.5262   12.5233   27.0366 C   0  0  0  0  0  0  0  0  0  0  0  0
  -18.8591   11.9420   27.6792 H   0  0  0  0  0  0  0  0  0  0  0  0
  -19.1043   13.5180   26.8687 H   0  0  0  0  0  0  0  0  0  0  0  0
  -20.8832   12.6085   27.6421 C   0  0  0  0  0  0  0  0  0  0  0  0
  -22.0303   12.6396   26.8964 N   0  0  0  0  0  0  0  0  0  0  0  0
  -22.0922   12.6451   25.8683 H   0  0  0  0  0  0  0  0  0  0  0  0
  -23.0853   12.6665   27.7474 C   0  0  0  0  0  0  0  0  0  0  0  0
  -22.5219   12.6475   29.0064 C   0  0  0  0  0  0  0  0  0  0  0  0
  -21.1471   12.6108   28.9065 N   0  0  0  0  0  0  0  0  0  0  0  0
  -23.3615   12.6663   30.1280 C   0  0  0  0  0  0  0  0  0  0  0  0
  -22.9361   12.6537   31.0971 H   0  0  0  0  0  0  0  0  0  0  0  0
  -24.7379   12.7044   29.9440 C   0  0  0  0  0  0  0  0  0  0  0  0
  -25.3822   12.7198   30.7848 H   0  0  0  0  0  0  0  0  0  0  0  0
  -25.2911   12.7224   28.6424 C   0  0  0  0  0  0  0  0  0  0  0  0
  -26.3452   12.7507   28.5244 H   0  0  0  0  0  0  0  0  0  0  0  0
  -24.4689   12.7039   27.5272 C   0  0  0  0  0  0  0  0  0  0  0  0
  -24.8697   12.7181   26.5465 H   0  0  0  0  0  0  0  0  0  0  0  0
  -17.9538   11.8030   24.8570 C   0  0  0  0  0  0  0  0  0  0  0  0
  -17.6811   12.8551   24.7584 H   0  0  0  0  0  0  0  0  0  0  0  0
  -17.9098   11.3115   23.8830 H   0  0  0  0  0  0  0  0  0  0  0  0
  -17.2918   11.2952   25.5618 H   0  0  0  0  0  0  0  0  0  0  0  0
  1  2  2  0
  1  3  2  0
  1  4  1  0
  1 21  1  0
  4  5  1  0
  4  6  1  0
  4  7  1  0
  7  8  1  0
  7 12  2  0
  8  9  1  0
  8 10  1  0
 10 11  1  0
 10 19  2  0
 11 12  1  0
 11 13  2  0
 13 14  1  0
 13 15  1  0
 15 16  1  0
 15 17  2  0
 17 18  1  0
 17 19  1  0
 19 20  1  0
 21 22  1  0
 21 23  1  0
 21 24  1  0
M  END
$$$$
