
     RDKit          3D

 27 28  0  0  0  0  0  0  0  0999 V2000
  -19.4793   15.0234   27.3313 F   0  0  0  0  0  0  0  0  0  0  0  0
  -19.2143   14.2779   26.2465 C   0  0  0  0  0  0  0  0  0  0  0  0
  -19.9314   13.0919   25.9907 C   0  0  0  0  0  0  0  0  0  0  0  0
  -20.9448   12.6114   26.8102 N   0  0  0  0  0  0  0  0  0  0  0  0
  -21.5282   11.8557   26.4710 H   0  0  0  0  0  0  0  0  0  0  0  0
  -21.2318   13.1121   28.1432 C   0  0  0  0  0  0  0  0  0  0  0  0
  -20.3671   12.9304   28.7933 H   0  0  0  0  0  0  0  0  0  0  0  0
  -21.3851   14.1972   28.1041 H   0  0  0  0  0  0  0  0  0  0  0  0
  -22.4388   12.4946   28.7809 C   0  0  0  0  0  0  0  0  0  0  0  0
  -23.7513   12.5490   28.3162 C   0  0  0  0  0  0  0  0  0  0  0  0
  -24.2751   13.2231   27.1040 C   0  0  0  0  0  0  0  0  0  0  0  0
  -23.7141   12.9098   26.2172 H   0  0  0  0  0  0  0  0  0  0  0  0
  -24.1832   14.3098   27.2032 H   0  0  0  0  0  0  0  0  0  0  0  0
  -25.3306   12.9872   26.9327 H   0  0  0  0  0  0  0  0  0  0  0  0
  -24.5537   11.8957   29.1086 N   0  0  0  0  0  0  0  0  0  0  0  0
  -23.7583   11.4096   30.0927 N   0  0  0  0  0  0  0  0  0  0  0  0
  -24.1225   10.8390   30.8786 H   0  0  0  0  0  0  0  0  0  0  0  0
  -22.4674   11.7569   29.9151 C   0  0  0  0  0  0  0  0  0  0  0  0
  -21.7022   11.4617   30.5839 H   0  0  0  0  0  0  0  0  0  0  0  0
  -19.6212   12.3601   24.8430 C   0  0  0  0  0  0  0  0  0  0  0  0
  -20.1569   11.4742   24.6232 H   0  0  0  0  0  0  0  0  0  0  0  0
  -18.6096   12.7959   23.9887 C   0  0  0  0  0  0  0  0  0  0  0  0
  -18.3759   12.2342   23.1199 H   0  0  0  0  0  0  0  0  0  0  0  0
  -17.8997   13.9674   24.2624 C   0  0  0  0  0  0  0  0  0  0  0  0
  -17.1325   14.2888   23.6049 H   0  0  0  0  0  0  0  0  0  0  0  0
  -18.2062   14.7139   25.3982 C   0  0  0  0  0  0  0  0  0  0  0  0
  -17.6795   15.6084   25.6141 H   0  0  0  0  0  0  0  0  0  0  0  0
  1  2  1  0
  2  3  1  0
  2 26  2  0
  3  4  1  0
  3 20  2  0
  4  5  1  0
  4  6  1  0
  6  7  1  0
  6  8  1  0
  6  9  1  0
  9 10  1  0
  9 18  2  0
 10 11  1  0
 10 15  2  0
 11 12  1  0
 11 13  1  0
 11 14  1  0
 15 16  1  0
 16 17  1  0
 16 18  1  0
 18 19  1  0
 20 21  1  0
 20 22  1  0
 22 23  1  0
 22 24  2  0
 24 25  1  0
 24 26  1  0
 26 27  1  0
M  END
$$$$
