
     RDKit          3D

 19 19  0  0  0  0  0  0  0  0999 V2000
  -16.3159   16.7290   26.2844 Br  0  0  0  0  0  0  0  0  0  0  0  0
  -17.3421   15.1893   26.0128 C   0  0  0  0  0  0  0  0  0  0  0  0
  -17.6079   14.3345   27.0386 C   0  0  0  0  0  0  0  0  0  0  0  0
  -17.2437   14.5125   28.0145 H   0  0  0  0  0  0  0  0  0  0  0  0
  -18.3899   13.1588   26.8271 C   0  0  0  0  0  0  0  0  0  0  0  0
  -18.6506   12.3322   27.7108 O   0  0  0  0  0  0  0  0  0  0  0  0
  -18.8816   12.9260   25.5388 N   0  0  0  0  0  0  0  0  0  0  0  0
  -19.6944   11.7371   25.2761 C   0  0  0  0  0  0  0  0  0  0  0  0
  -20.4724   11.6521   26.0447 H   0  0  0  0  0  0  0  0  0  0  0  0
  -20.2319   11.8529   24.3259 H   0  0  0  0  0  0  0  0  0  0  0  0
  -18.8589   10.4582   25.2603 C   0  0  0  0  0  0  0  0  0  0  0  0
  -19.3866    9.6356   24.7667 H   0  0  0  0  0  0  0  0  0  0  0  0
  -18.6297   10.1383   26.2823 H   0  0  0  0  0  0  0  0  0  0  0  0
  -17.6274   10.6795   24.5830 O   0  0  0  0  0  0  0  0  0  0  0  0
  -17.8402   10.8998   23.6583 H   0  0  0  0  0  0  0  0  0  0  0  0
  -18.6047   13.7970   24.4908 C   0  0  0  0  0  0  0  0  0  0  0  0
  -19.0135   13.5322   23.5463 H   0  0  0  0  0  0  0  0  0  0  0  0
  -17.8509   14.9116   24.7129 C   0  0  0  0  0  0  0  0  0  0  0  0
  -17.6351   15.5819   23.9207 H   0  0  0  0  0  0  0  0  0  0  0  0
  1  2  1  0
  2  3  2  0
  2 18  1  0
  3  4  1  0
  3  5  1  0
  5  6  2  0
  5  7  1  0
  7  8  1  0
  7 16  1  0
  8  9  1  0
  8 10  1  0
  8 11  1  0
 11 12  1  0
 11 13  1  0
 11 14  1  0
 14 15  1  0
 16 17  1  0
 16 18  2  0
 18 19  1  0
M  END
$$$$
