
     RDKit          3D

 26 26  0  0  0  0  0  0  0  0999 V2000
  -23.0890   15.4569   31.2946 F   0  0  0  0  0  0  0  0  0  0  0  0
  -23.7769   15.9203   30.2393 C   0  0  0  0  0  0  0  0  0  0  0  0
  -24.2314   15.0732   29.2119 C   0  0  0  0  0  0  0  0  0  0  0  0
  -24.0180   13.6858   29.2425 N   0  0  0  0  0  0  0  0  0  0  0  0
  -23.5959   13.0275   27.9836 C   0  0  0  0  0  0  0  0  0  0  0  0
  -24.8018   12.4178   27.2449 C   0  0  0  0  0  0  0  0  0  0  0  0
  -25.4752   13.2077   26.8949 H   0  0  0  0  0  0  0  0  0  0  0  0
  -25.3809   11.7563   27.8968 H   0  0  0  0  0  0  0  0  0  0  0  0
  -24.3949   11.6564   26.1097 O   0  0  0  0  0  0  0  0  0  0  0  0
  -25.1976   11.1832   25.8259 H   0  0  0  0  0  0  0  0  0  0  0  0
  -22.4968   11.9822   28.2105 C   0  0  0  0  0  0  0  0  0  0  0  0
  -22.0838   11.6568   27.2489 H   0  0  0  0  0  0  0  0  0  0  0  0
  -22.8657   11.0855   28.7168 H   0  0  0  0  0  0  0  0  0  0  0  0
  -21.6758   12.3982   28.8026 H   0  0  0  0  0  0  0  0  0  0  0  0
  -24.1992   12.9304   30.4735 C   0  0  0  0  0  0  0  0  0  0  0  0
  -23.3592   13.0950   31.1564 H   0  0  0  0  0  0  0  0  0  0  0  0
  -24.2722   11.8535   30.2953 H   0  0  0  0  0  0  0  0  0  0  0  0
  -25.1373   13.2023   30.9719 H   0  0  0  0  0  0  0  0  0  0  0  0
  -24.9046   15.5568   28.1565 N   0  0  0  0  0  0  0  0  0  0  0  0
  -25.1271   16.8752   28.0865 C   0  0  0  0  0  0  0  0  0  0  0  0
  -25.6557   17.2405   27.2437 H   0  0  0  0  0  0  0  0  0  0  0  0
  -24.6914   17.7636   29.0715 C   0  0  0  0  0  0  0  0  0  0  0  0
  -24.8894   18.7991   28.9748 H   0  0  0  0  0  0  0  0  0  0  0  0
  -23.9991   17.2829   30.1800 C   0  0  0  0  0  0  0  0  0  0  0  0
  -23.6559   17.9259   30.9484 H   0  0  0  0  0  0  0  0  0  0  0  0
  -23.1349   13.7699   27.3182 H   0  0  0  0  0  0  0  0  0  0  0  0
  1  2  1  0
  2  3  1  0
  2 24  2  0
  3  4  1  0
  3 19  2  0
  4  5  1  0
  4 15  1  0
  5  6  1  0
  5 11  1  0
  5 26  1  0
  6  7  1  0
  6  8  1  0
  6  9  1  0
  9 10  1  0
 11 12  1  0
 11 13  1  0
 11 14  1  0
 15 16  1  0
 15 17  1  0
 15 18  1  0
 19 20  1  0
 20 21  1  0
 20 22  2  0
 22 23  1  0
 22 24  1  0
 24 25  1  0
M  END
$$$$
