
     RDKit          3D

 16 16  0  0  0  0  0  0  0  0999 V2000
  -21.8924   11.7671   28.1378 O   0  0  0  0  0  0  0  0  0  0  0  0
  -20.7316   12.5915   28.0329 C   0  0  0  0  0  0  0  0  0  0  0  0
  -21.0286   13.6474   28.0380 H   0  0  0  0  0  0  0  0  0  0  0  0
  -20.0622   12.4087   28.8812 H   0  0  0  0  0  0  0  0  0  0  0  0
  -20.0571   12.2609   26.7452 C   0  0  0  0  0  0  0  0  0  0  0  0
  -19.3388   13.4852   25.7862 S   0  0  0  0  0  0  0  0  0  0  0  0
  -18.9323   12.2465   24.6937 C   0  0  0  0  0  0  0  0  0  0  0  0
  -18.2627   12.5316   23.5641 N   0  0  0  0  0  0  0  0  0  0  0  0
  -17.9788   13.4739   23.3270 H   0  0  0  0  0  0  0  0  0  0  0  0
  -18.0213   11.7937   22.9135 H   0  0  0  0  0  0  0  0  0  0  0  0
  -19.3106   11.0521   25.0263 N   0  0  0  0  0  0  0  0  0  0  0  0
  -19.9727   11.0687   26.2363 N   0  0  0  0  0  0  0  0  0  0  0  0
  -22.6000   12.0113   29.3452 C   0  0  0  0  0  0  0  0  0  0  0  0
  -23.4744   11.3549   29.3707 H   0  0  0  0  0  0  0  0  0  0  0  0
  -22.9418   13.0498   29.3860 H   0  0  0  0  0  0  0  0  0  0  0  0
  -21.9696   11.7866   30.2109 H   0  0  0  0  0  0  0  0  0  0  0  0
  1  2  1  0
  1 13  1  0
  2  3  1  0
  2  4  1  0
  2  5  1  0
  5  6  1  0
  5 12  2  0
  6  7  1  0
  7  8  1  0
  7 11  2  0
  8  9  1  0
  8 10  1  0
 11 12  1  0
 13 14  1  0
 13 15  1  0
 13 16  1  0
M  END
$$$$
