
     RDKit          3D

 18 18  0  0  0  0  0  0  0  0999 V2000
  -18.9286   13.9660   27.4543 O   0  0  0  0  0  0  0  0  0  0  0  0
  -19.4936   13.7164   26.3991 C   0  0  0  0  0  0  0  0  0  0  0  0
  -20.8464   13.5944   26.2506 O   0  0  0  0  0  0  0  0  0  0  0  0
  -21.5998   13.3587   27.4503 C   0  0  0  0  0  0  0  0  0  0  0  0
  -22.6592   13.3930   27.1748 H   0  0  0  0  0  0  0  0  0  0  0  0
  -21.4321   14.1521   28.1871 H   0  0  0  0  0  0  0  0  0  0  0  0
  -21.2632   11.9931   28.0172 C   0  0  0  0  0  0  0  0  0  0  0  0
  -20.2074   11.9349   28.3003 H   0  0  0  0  0  0  0  0  0  0  0  0
  -21.4345   11.2126   27.2688 H   0  0  0  0  0  0  0  0  0  0  0  0
  -21.8741   11.7774   28.8982 H   0  0  0  0  0  0  0  0  0  0  0  0
  -18.7755   13.5125   25.1542 C   0  0  0  0  0  0  0  0  0  0  0  0
  -17.5680   14.0369   24.7980 C   0  0  0  0  0  0  0  0  0  0  0  0
  -16.9011   14.6804   25.3118 H   0  0  0  0  0  0  0  0  0  0  0  0
  -17.3133   13.5698   23.5647 N   0  0  0  0  0  0  0  0  0  0  0  0
  -16.4637   13.7861   23.0070 H   0  0  0  0  0  0  0  0  0  0  0  0
  -18.3094   12.7629   23.1077 N   0  0  0  0  0  0  0  0  0  0  0  0
  -19.1867   12.7340   24.0712 C   0  0  0  0  0  0  0  0  0  0  0  0
  -20.0920   12.1827   24.0211 H   0  0  0  0  0  0  0  0  0  0  0  0
  1  2  2  0
  2  3  1  0
  2 11  1  0
  3  4  1  0
  4  5  1  0
  4  6  1  0
  4  7  1  0
  7  8  1  0
  7  9  1  0
  7 10  1  0
 11 12  2  0
 11 17  1  0
 12 13  1  0
 12 14  1  0
 14 15  1  0
 14 16  1  0
 16 17  2  0
 17 18  1  0
M  END
$$$$
