
     RDKit          3D

 24 25  0  0  0  0  0  0  0  0999 V2000
  -21.6187   12.0034   29.9118 F   0  0  0  0  0  0  0  0  0  0  0  0
  -22.7648   12.3817   29.3283 C   0  0  0  0  0  0  0  0  0  0  0  0
  -22.8285   12.6813   27.9550 C   0  0  0  0  0  0  0  0  0  0  0  0
  -21.7412   12.6650   27.0907 N   0  0  0  0  0  0  0  0  0  0  0  0
  -21.9167   12.3826   26.1323 H   0  0  0  0  0  0  0  0  0  0  0  0
  -20.3612   13.0016   27.3823 C   0  0  0  0  0  0  0  0  0  0  0  0
  -20.2447   13.7854   28.1320 H   0  0  0  0  0  0  0  0  0  0  0  0
  -19.8807   12.1089   27.8005 H   0  0  0  0  0  0  0  0  0  0  0  0
  -19.6206   13.4304   26.1673 C   0  0  0  0  0  0  0  0  0  0  0  0
  -19.2446   14.7167   25.9840 N   0  0  0  0  0  0  0  0  0  0  0  0
  -19.4558   15.4913   26.6446 H   0  0  0  0  0  0  0  0  0  0  0  0
  -18.5726   14.8958   24.8169 N   0  0  0  0  0  0  0  0  0  0  0  0
  -18.5306   13.7098   24.2728 C   0  0  0  0  0  0  0  0  0  0  0  0
  -18.0659   13.5132   23.3400 H   0  0  0  0  0  0  0  0  0  0  0  0
  -19.1685   12.7723   25.0762 C   0  0  0  0  0  0  0  0  0  0  0  0
  -19.2780   11.7379   24.8695 H   0  0  0  0  0  0  0  0  0  0  0  0
  -24.0627   13.0322   27.4033 C   0  0  0  0  0  0  0  0  0  0  0  0
  -24.1376   13.2423   26.3674 H   0  0  0  0  0  0  0  0  0  0  0  0
  -25.1911   13.1115   28.2171 C   0  0  0  0  0  0  0  0  0  0  0  0
  -26.1258   13.3838   27.7937 H   0  0  0  0  0  0  0  0  0  0  0  0
  -25.1072   12.8316   29.5822 C   0  0  0  0  0  0  0  0  0  0  0  0
  -25.9739   12.8938   30.1901 H   0  0  0  0  0  0  0  0  0  0  0  0
  -23.8864   12.4593   30.1416 C   0  0  0  0  0  0  0  0  0  0  0  0
  -23.8110   12.2321   31.1740 H   0  0  0  0  0  0  0  0  0  0  0  0
  1  2  1  0
  2  3  1  0
  2 23  2  0
  3  4  1  0
  3 17  2  0
  4  5  1  0
  4  6  1  0
  6  7  1  0
  6  8  1  0
  6  9  1  0
  9 10  1  0
  9 15  2  0
 10 11  1  0
 10 12  1  0
 12 13  2  0
 13 14  1  0
 13 15  1  0
 15 16  1  0
 17 18  1  0
 17 19  1  0
 19 20  1  0
 19 21  2  0
 21 22  1  0
 21 23  1  0
 23 24  1  0
M  END
$$$$
