
     RDKit          3D

 20 20  0  0  0  0  0  0  0  0999 V2000
  -17.2089   15.6401   26.8875 S   0  0  0  0  0  0  0  0  0  0  0  0
  -15.9097   15.5322   27.5103 O   0  0  0  0  0  0  0  0  0  0  0  0
  -18.3775   14.9800   27.4279 O   0  0  0  0  0  0  0  0  0  0  0  0
  -17.0386   15.1194   25.2928 N   0  0  0  0  0  0  0  0  0  0  0  0
  -17.6125   14.2978   25.0904 H   0  0  0  0  0  0  0  0  0  0  0  0
  -17.1546   15.8821   24.6206 H   0  0  0  0  0  0  0  0  0  0  0  0
  -17.5845   17.3453   26.6629 C   0  0  0  0  0  0  0  0  0  0  0  0
  -16.5630   18.2681   26.4184 C   0  0  0  0  0  0  0  0  0  0  0  0
  -15.5505   17.9581   26.3881 H   0  0  0  0  0  0  0  0  0  0  0  0
  -16.8941   19.5984   26.2102 C   0  0  0  0  0  0  0  0  0  0  0  0
  -15.9097   20.4795   25.9798 F   0  0  0  0  0  0  0  0  0  0  0  0
  -18.2050   20.0507   26.2253 C   0  0  0  0  0  0  0  0  0  0  0  0
  -18.4143   21.0759   26.0581 H   0  0  0  0  0  0  0  0  0  0  0  0
  -19.2299   19.1362   26.4571 C   0  0  0  0  0  0  0  0  0  0  0  0
  -20.6627   19.5820   26.4326 C   0  0  0  0  0  0  0  0  0  0  0  0
  -20.7548   20.6238   26.7574 H   0  0  0  0  0  0  0  0  0  0  0  0
  -21.2715   18.9758   27.1113 H   0  0  0  0  0  0  0  0  0  0  0  0
  -21.0657   19.4904   25.4198 H   0  0  0  0  0  0  0  0  0  0  0  0
  -18.9136   17.7909   26.6673 C   0  0  0  0  0  0  0  0  0  0  0  0
  -19.6913   17.0861   26.8292 H   0  0  0  0  0  0  0  0  0  0  0  0
  1  2  2  0
  1  3  2  0
  1  4  1  0
  1  7  1  0
  4  5  1  0
  4  6  1  0
  7  8  1  0
  7 19  2  0
  8  9  1  0
  8 10  2  0
 10 11  1  0
 10 12  1  0
 12 13  1  0
 12 14  2  0
 14 15  1  0
 14 19  1  0
 15 16  1  0
 15 17  1  0
 15 18  1  0
 19 20  1  0
M  END
$$$$
