
     RDKit          3D

 22 22  0  0  0  0  0  0  0  0999 V2000
  -25.6055   14.0574   26.9020 O   0  0  0  0  0  0  0  0  0  0  0  0
  -24.9167   13.7098   26.3092 H   0  0  0  0  0  0  0  0  0  0  0  0
  -25.4472   13.3982   28.1553 C   0  0  0  0  0  0  0  0  0  0  0  0
  -26.2492   13.7206   28.8282 H   0  0  0  0  0  0  0  0  0  0  0  0
  -25.5459   12.3226   27.9773 H   0  0  0  0  0  0  0  0  0  0  0  0
  -24.0679   13.7015   28.7369 C   0  0  0  0  0  0  0  0  0  0  0  0
  -23.3039   13.4042   28.0081 H   0  0  0  0  0  0  0  0  0  0  0  0
  -23.9597   14.7813   28.9019 H   0  0  0  0  0  0  0  0  0  0  0  0
  -23.8113   12.9890   30.0276 C   0  0  0  0  0  0  0  0  0  0  0  0
  -23.0605   11.8801   30.2139 C   0  0  0  0  0  0  0  0  0  0  0  0
  -22.5114   11.2810   29.5361 H   0  0  0  0  0  0  0  0  0  0  0  0
  -23.1175   11.6104   31.5366 N   0  0  0  0  0  0  0  0  0  0  0  0
  -22.4783   10.5278   32.2525 C   0  0  0  0  0  0  0  0  0  0  0  0
  -21.3952   10.6504   32.1459 H   0  0  0  0  0  0  0  0  0  0  0  0
  -22.7268   10.6383   33.3136 H   0  0  0  0  0  0  0  0  0  0  0  0
  -22.9094    9.1667   31.7362 C   0  0  0  0  0  0  0  0  0  0  0  0
  -22.6605    9.0505   30.6749 H   0  0  0  0  0  0  0  0  0  0  0  0
  -23.9904    9.0268   31.8417 H   0  0  0  0  0  0  0  0  0  0  0  0
  -22.4054    8.3715   32.2941 H   0  0  0  0  0  0  0  0  0  0  0  0
  -23.8848   12.5095   32.2019 N   0  0  0  0  0  0  0  0  0  0  0  0
  -24.2981   13.3404   31.2837 C   0  0  0  0  0  0  0  0  0  0  0  0
  -24.9289   14.1711   31.4863 H   0  0  0  0  0  0  0  0  0  0  0  0
  1  2  1  0
  1  3  1  0
  3  4  1  0
  3  5  1  0
  3  6  1  0
  6  7  1  0
  6  8  1  0
  6  9  1  0
  9 10  2  0
  9 21  1  0
 10 11  1  0
 10 12  1  0
 12 13  1  0
 12 20  1  0
 13 14  1  0
 13 15  1  0
 13 16  1  0
 16 17  1  0
 16 18  1  0
 16 19  1  0
 20 21  2  0
 21 22  1  0
M  END
$$$$
