
     RDKit          3D

 23 24  0  0  0  0  0  0  0  0999 V2000
  -21.2316   12.6083   28.2768 C   0  0  0  0  0  0  0  0  0  0  0  0
  -21.3983   13.6827   28.3898 H   0  0  0  0  0  0  0  0  0  0  0  0
  -20.6517   12.2279   29.1208 H   0  0  0  0  0  0  0  0  0  0  0  0
  -22.1951   12.0968   28.2158 H   0  0  0  0  0  0  0  0  0  0  0  0
  -20.4933   12.3541   27.0699 N   0  0  0  0  0  0  0  0  0  0  0  0
  -20.4505   11.1127   26.5641 N   0  0  0  0  0  0  0  0  0  0  0  0
  -19.7089   11.1455   25.4824 N   0  0  0  0  0  0  0  0  0  0  0  0
  -19.2985   12.4205   25.3223 C   0  0  0  0  0  0  0  0  0  0  0  0
  -19.7908   13.1914   26.3051 C   0  0  0  0  0  0  0  0  0  0  0  0
  -19.5892   14.6546   26.4716 C   0  0  0  0  0  0  0  0  0  0  0  0
  -20.5193   15.1606   26.1821 H   0  0  0  0  0  0  0  0  0  0  0  0
  -19.4078   14.9012   27.5222 H   0  0  0  0  0  0  0  0  0  0  0  0
  -18.4511   15.1459   25.5439 C   0  0  0  0  0  0  0  0  0  0  0  0
  -17.0953   15.0572   26.2516 C   0  0  0  0  0  0  0  0  0  0  0  0
  -17.0648   14.4633   27.3524 O   0  0  0  0  0  0  0  0  0  0  0  0
  -16.1167   15.6162   25.7112 O   0  0  0  0  0  0  0  0  0  0  0  0
  -18.4834   14.4519   24.1574 C   0  0  0  0  0  0  0  0  0  0  0  0
  -19.4195   14.7371   23.6575 H   0  0  0  0  0  0  0  0  0  0  0  0
  -17.6702   14.8147   23.5177 H   0  0  0  0  0  0  0  0  0  0  0  0
  -18.4194   12.9101   24.2381 C   0  0  0  0  0  0  0  0  0  0  0  0
  -17.3918   12.5836   24.4336 H   0  0  0  0  0  0  0  0  0  0  0  0
  -18.7210   12.4796   23.2764 H   0  0  0  0  0  0  0  0  0  0  0  0
  -18.6015   16.2216   25.3784 H   0  0  0  0  0  0  0  0  0  0  0  0
  1  2  1  0
  1  3  1  0
  1  4  1  0
  1  5  1  0
  5  6  1  0
  5  9  1  0
  6  7  2  0
  7  8  1  0
  8  9  2  0
  8 20  1  0
  9 10  1  0
 10 11  1  0
 10 12  1  0
 10 13  1  0
 13 14  1  0
 13 17  1  0
 13 23  1  0
 14 15  1  0
 14 16  2  0
 17 18  1  0
 17 19  1  0
 17 20  1  0
 20 21  1  0
 20 22  1  0
M  END
$$$$
