
     RDKit          3D

 26 27  0  0  0  0  0  0  0  0999 V2000
  -22.2730   12.1538   29.3531 O   0  0  0  0  0  0  0  0  0  0  0  0
  -21.5376   12.3809   28.3838 C   0  0  0  0  0  0  0  0  0  0  0  0
  -22.1063   12.6933   27.1416 N   0  0  0  0  0  0  0  0  0  0  0  0
  -23.5555   12.7829   26.9830 C   0  0  0  0  0  0  0  0  0  0  0  0
  -23.7853   12.8548   25.9132 H   0  0  0  0  0  0  0  0  0  0  0  0
  -24.0265   11.8682   27.3588 H   0  0  0  0  0  0  0  0  0  0  0  0
  -24.0689   13.9711   27.7000 C   0  0  0  0  0  0  0  0  0  0  0  0
  -25.1693   14.5525   27.2172 O   0  0  0  0  0  0  0  0  0  0  0  0
  -25.4963   15.6143   27.9653 N   0  0  0  0  0  0  0  0  0  0  0  0
  -24.6188   15.7029   28.9042 C   0  0  0  0  0  0  0  0  0  0  0  0
  -24.6886   16.7739   29.9195 C   0  0  0  0  0  0  0  0  0  0  0  0
  -23.7671   16.8180   30.5095 H   0  0  0  0  0  0  0  0  0  0  0  0
  -25.5217   16.5950   30.6077 H   0  0  0  0  0  0  0  0  0  0  0  0
  -24.8325   17.7518   29.4485 H   0  0  0  0  0  0  0  0  0  0  0  0
  -23.6892   14.6814   28.7732 C   0  0  0  0  0  0  0  0  0  0  0  0
  -22.8477   14.4953   29.3889 H   0  0  0  0  0  0  0  0  0  0  0  0
  -21.3541   12.9393   26.0110 N   0  0  0  0  0  0  0  0  0  0  0  0
  -20.0597   12.8898   26.0675 C   0  0  0  0  0  0  0  0  0  0  0  0
  -19.2611   13.1586   24.8235 C   0  0  0  0  0  0  0  0  0  0  0  0
  -19.5351   14.1397   24.4226 H   0  0  0  0  0  0  0  0  0  0  0  0
  -19.4907   12.3924   24.0763 H   0  0  0  0  0  0  0  0  0  0  0  0
  -18.1871   13.1466   25.0247 H   0  0  0  0  0  0  0  0  0  0  0  0
  -19.3917   12.5853   27.2892 C   0  0  0  0  0  0  0  0  0  0  0  0
  -18.3327   12.5558   27.3042 H   0  0  0  0  0  0  0  0  0  0  0  0
  -20.1112   12.3384   28.4215 C   0  0  0  0  0  0  0  0  0  0  0  0
  -19.6456   12.1097   29.3435 H   0  0  0  0  0  0  0  0  0  0  0  0
  1  2  2  0
  2  3  1  0
  2 25  1  0
  3  4  1  0
  3 17  1  0
  4  5  1  0
  4  6  1  0
  4  7  1  0
  7  8  1  0
  7 15  2  0
  8  9  1  0
  9 10  2  0
 10 11  1  0
 10 15  1  0
 11 12  1  0
 11 13  1  0
 11 14  1  0
 15 16  1  0
 17 18  2  0
 18 19  1  0
 18 23  1  0
 19 20  1  0
 19 21  1  0
 19 22  1  0
 23 24  1  0
 23 25  2  0
 25 26  1  0
M  END
$$$$
