
     RDKit          3D

 19 19  0  0  0  0  0  0  0  0999 V2000
  -20.6829   17.2314   33.2787 Br  0  0  0  0  0  0  0  0  0  0  0  0
  -22.1963   16.5984   32.3883 C   0  0  0  0  0  0  0  0  0  0  0  0
  -22.8520   15.4348   32.5863 C   0  0  0  0  0  0  0  0  0  0  0  0
  -22.6760   14.6303   33.2525 H   0  0  0  0  0  0  0  0  0  0  0  0
  -23.8740   15.4333   31.7022 N   0  0  0  0  0  0  0  0  0  0  0  0
  -24.8883   14.4164   31.5078 C   0  0  0  0  0  0  0  0  0  0  0  0
  -24.5385   13.5086   32.0119 H   0  0  0  0  0  0  0  0  0  0  0  0
  -25.7946   14.7677   32.0123 H   0  0  0  0  0  0  0  0  0  0  0  0
  -25.1590   14.1611   30.0330 C   0  0  0  0  0  0  0  0  0  0  0  0
  -25.8232   13.3003   29.8927 H   0  0  0  0  0  0  0  0  0  0  0  0
  -24.2104   13.9643   29.5217 H   0  0  0  0  0  0  0  0  0  0  0  0
  -25.7485   15.3297   29.4561 O   0  0  0  0  0  0  0  0  0  0  0  0
  -25.9599   15.1772   28.0586 C   0  0  0  0  0  0  0  0  0  0  0  0
  -26.3972   16.1020   27.6736 H   0  0  0  0  0  0  0  0  0  0  0  0
  -26.6546   14.3549   27.8649 H   0  0  0  0  0  0  0  0  0  0  0  0
  -25.0107   14.9979   27.5450 H   0  0  0  0  0  0  0  0  0  0  0  0
  -23.8869   16.5620   30.9394 N   0  0  0  0  0  0  0  0  0  0  0  0
  -22.8669   17.2618   31.3663 C   0  0  0  0  0  0  0  0  0  0  0  0
  -22.6006   18.2078   30.9701 H   0  0  0  0  0  0  0  0  0  0  0  0
  1  2  1  0
  2  3  2  0
  2 18  1  0
  3  4  1  0
  3  5  1  0
  5  6  1  0
  5 17  1  0
  6  7  1  0
  6  8  1  0
  6  9  1  0
  9 10  1  0
  9 11  1  0
  9 12  1  0
 12 13  1  0
 13 14  1  0
 13 15  1  0
 13 16  1  0
 17 18  2  0
 18 19  1  0
M  END
$$$$
