
     RDKit          3D

 26 27  0  0  0  0  0  0  0  0999 V2000
  -18.1478   15.2416   24.3961 O   0  0  0  0  0  0  0  0  0  0  0  0
  -18.8157   14.5826   25.2031 C   0  0  0  0  0  0  0  0  0  0  0  0
  -19.2551   15.1824   26.3911 N   0  0  0  0  0  0  0  0  0  0  0  0
  -18.9596   16.5842   26.6757 C   0  0  0  0  0  0  0  0  0  0  0  0
  -19.4300   17.2035   25.9026 H   0  0  0  0  0  0  0  0  0  0  0  0
  -19.4014   16.8681   27.6370 H   0  0  0  0  0  0  0  0  0  0  0  0
  -17.4956   16.7991   26.6864 C   0  0  0  0  0  0  0  0  0  0  0  0
  -16.7382   15.8448   27.2320 O   0  0  0  0  0  0  0  0  0  0  0  0
  -15.4460   16.1927   27.1756 N   0  0  0  0  0  0  0  0  0  0  0  0
  -15.3871   17.3459   26.6045 C   0  0  0  0  0  0  0  0  0  0  0  0
  -14.0939   18.0233   26.3776 C   0  0  0  0  0  0  0  0  0  0  0  0
  -14.2428   19.0639   26.0708 H   0  0  0  0  0  0  0  0  0  0  0  0
  -13.5297   17.5160   25.5878 H   0  0  0  0  0  0  0  0  0  0  0  0
  -13.4875   18.0259   27.2892 H   0  0  0  0  0  0  0  0  0  0  0  0
  -16.6666   17.7726   26.2796 C   0  0  0  0  0  0  0  0  0  0  0  0
  -16.9411   18.6809   25.8091 H   0  0  0  0  0  0  0  0  0  0  0  0
  -19.9864   14.5083   27.3479 N   0  0  0  0  0  0  0  0  0  0  0  0
  -20.3002   13.2631   27.1688 C   0  0  0  0  0  0  0  0  0  0  0  0
  -21.0947   12.5485   28.2251 C   0  0  0  0  0  0  0  0  0  0  0  0
  -22.0230   13.0975   28.4129 H   0  0  0  0  0  0  0  0  0  0  0  0
  -20.5108   12.5105   29.1500 H   0  0  0  0  0  0  0  0  0  0  0  0
  -21.3428   11.5288   27.9206 H   0  0  0  0  0  0  0  0  0  0  0  0
  -19.9021   12.5706   25.9885 C   0  0  0  0  0  0  0  0  0  0  0  0
  -20.1768   11.5542   25.8697 H   0  0  0  0  0  0  0  0  0  0  0  0
  -19.1790   13.2133   25.0268 C   0  0  0  0  0  0  0  0  0  0  0  0
  -18.8683   12.7276   24.1398 H   0  0  0  0  0  0  0  0  0  0  0  0
  1  2  2  0
  2  3  1  0
  2 25  1  0
  3  4  1  0
  3 17  1  0
  4  5  1  0
  4  6  1  0
  4  7  1  0
  7  8  1  0
  7 15  2  0
  8  9  1  0
  9 10  2  0
 10 11  1  0
 10 15  1  0
 11 12  1  0
 11 13  1  0
 11 14  1  0
 15 16  1  0
 17 18  2  0
 18 19  1  0
 18 23  1  0
 19 20  1  0
 19 21  1  0
 19 22  1  0
 23 24  1  0
 23 25  2  0
 25 26  1  0
M  END
$$$$
