
     RDKit          3D

 21 21  0  0  0  0  0  0  0  0999 V2000
  -14.4017   18.6210   24.7087 Br  0  0  0  0  0  0  0  0  0  0  0  0
  -16.1481   18.6835   25.4348 C   0  0  0  0  0  0  0  0  0  0  0  0
  -16.7203   17.5366   25.9742 C   0  0  0  0  0  0  0  0  0  0  0  0
  -16.1910   16.6221   25.9828 H   0  0  0  0  0  0  0  0  0  0  0  0
  -18.0068   17.5952   26.5019 C   0  0  0  0  0  0  0  0  0  0  0  0
  -18.5327   16.4326   27.0019 O   0  0  0  0  0  0  0  0  0  0  0  0
  -18.8511   15.3916   26.0469 C   0  0  0  0  0  0  0  0  0  0  0  0
  -19.4233   14.6221   26.5626 H   0  0  0  0  0  0  0  0  0  0  0  0
  -17.9170   14.9884   25.6586 H   0  0  0  0  0  0  0  0  0  0  0  0
  -19.4400   15.8208   25.2370 H   0  0  0  0  0  0  0  0  0  0  0  0
  -18.7361   18.7923   26.5179 C   0  0  0  0  0  0  0  0  0  0  0  0
  -20.1352   18.9027   27.1248 C   0  0  0  0  0  0  0  0  0  0  0  0
  -20.2909   18.0749   27.7989 H   0  0  0  0  0  0  0  0  0  0  0  0
  -20.8921   18.9534   26.3600 H   0  0  0  0  0  0  0  0  0  0  0  0
  -20.2164   20.1723   27.9421 C   0  0  0  0  0  0  0  0  0  0  0  0
  -20.9734   21.0783   27.5257 O   0  0  0  0  0  0  0  0  0  0  0  0
  -19.4870   20.2639   28.9546 O   0  0  0  0  0  0  0  0  0  0  0  0
  -18.1489   19.9296   25.9660 C   0  0  0  0  0  0  0  0  0  0  0  0
  -18.6945   20.8410   25.9502 H   0  0  0  0  0  0  0  0  0  0  0  0
  -16.8653   19.8789   25.4277 C   0  0  0  0  0  0  0  0  0  0  0  0
  -16.4364   20.7515   25.0090 H   0  0  0  0  0  0  0  0  0  0  0  0
  1  2  1  0
  2  3  1  0
  2 20  2  0
  3  4  1  0
  3  5  2  0
  5  6  1  0
  5 11  1  0
  6  7  1  0
  7  8  1  0
  7  9  1  0
  7 10  1  0
 11 12  1  0
 11 18  2  0
 12 13  1  0
 12 14  1  0
 12 15  1  0
 15 16  1  0
 15 17  2  0
 18 19  1  0
 18 20  1  0
 20 21  1  0
M  END
$$$$
