
     RDKit          3D

 18 18  0  0  0  0  0  0  0  0999 V2000
  -18.4211   15.5466   27.2176 O   0  0  0  0  0  0  0  0  0  0  0  0
  -17.8984   15.1563   26.1836 C   0  0  0  0  0  0  0  0  0  0  0  0
  -16.7205   15.6313   25.6796 O   0  0  0  0  0  0  0  0  0  0  0  0
  -16.1313   16.7404   26.3762 C   0  0  0  0  0  0  0  0  0  0  0  0
  -15.9196   16.4019   27.3960 H   0  0  0  0  0  0  0  0  0  0  0  0
  -16.8324   17.5789   26.4533 H   0  0  0  0  0  0  0  0  0  0  0  0
  -14.8404   17.1556   25.6974 C   0  0  0  0  0  0  0  0  0  0  0  0
  -15.0271   17.4985   24.6747 H   0  0  0  0  0  0  0  0  0  0  0  0
  -14.1522   16.3071   25.6269 H   0  0  0  0  0  0  0  0  0  0  0  0
  -14.3517   17.9611   26.2527 H   0  0  0  0  0  0  0  0  0  0  0  0
  -18.4842   14.1219   25.3506 C   0  0  0  0  0  0  0  0  0  0  0  0
  -19.3822   13.1659   25.7246 C   0  0  0  0  0  0  0  0  0  0  0  0
  -19.8427   12.9589   26.6561 H   0  0  0  0  0  0  0  0  0  0  0  0
  -19.6295   12.4415   24.6208 N   0  0  0  0  0  0  0  0  0  0  0  0
  -20.2765   11.6301   24.5707 H   0  0  0  0  0  0  0  0  0  0  0  0
  -18.9263   12.8912   23.5458 N   0  0  0  0  0  0  0  0  0  0  0  0
  -18.2384   13.9034   23.9942 C   0  0  0  0  0  0  0  0  0  0  0  0
  -17.5811   14.4770   23.3901 H   0  0  0  0  0  0  0  0  0  0  0  0
  1  2  2  0
  2  3  1  0
  2 11  1  0
  3  4  1  0
  4  5  1  0
  4  6  1  0
  4  7  1  0
  7  8  1  0
  7  9  1  0
  7 10  1  0
 11 12  2  0
 11 17  1  0
 12 13  1  0
 12 14  1  0
 14 15  1  0
 14 16  1  0
 16 17  2  0
 17 18  1  0
M  END
$$$$
