
     RDKit          3D

 16 16  0  0  0  0  0  0  0  0999 V2000
  -15.7341   16.1154   25.7845 O   0  0  0  0  0  0  0  0  0  0  0  0
  -16.7819   16.0852   26.7537 C   0  0  0  0  0  0  0  0  0  0  0  0
  -16.3577   15.9005   27.7483 H   0  0  0  0  0  0  0  0  0  0  0  0
  -17.3098   17.0455   26.7675 H   0  0  0  0  0  0  0  0  0  0  0  0
  -17.7080   14.9770   26.3840 C   0  0  0  0  0  0  0  0  0  0  0  0
  -18.0214   14.6001   24.7427 S   0  0  0  0  0  0  0  0  0  0  0  0
  -19.0629   13.3889   25.3273 C   0  0  0  0  0  0  0  0  0  0  0  0
  -19.7309   12.5979   24.4709 N   0  0  0  0  0  0  0  0  0  0  0  0
  -19.6394   12.6891   23.4669 H   0  0  0  0  0  0  0  0  0  0  0  0
  -20.3514   11.8771   24.8195 H   0  0  0  0  0  0  0  0  0  0  0  0
  -19.1580   13.2987   26.6170 N   0  0  0  0  0  0  0  0  0  0  0  0
  -18.3567   14.2377   27.2327 N   0  0  0  0  0  0  0  0  0  0  0  0
  -14.8407   17.1958   26.0136 C   0  0  0  0  0  0  0  0  0  0  0  0
  -14.0635   17.1690   25.2447 H   0  0  0  0  0  0  0  0  0  0  0  0
  -14.3651   17.0987   26.9941 H   0  0  0  0  0  0  0  0  0  0  0  0
  -15.3689   18.1515   25.9428 H   0  0  0  0  0  0  0  0  0  0  0  0
  1  2  1  0
  1 13  1  0
  2  3  1  0
  2  4  1  0
  2  5  1  0
  5  6  1  0
  5 12  2  0
  6  7  1  0
  7  8  1  0
  7 11  2  0
  8  9  1  0
  8 10  1  0
 11 12  1  0
 13 14  1  0
 13 15  1  0
 13 16  1  0
M  END
$$$$
