
     RDKit          3D

 30 31  0  0  0  0  0  0  0  0999 V2000
  -19.0530   19.4240   27.6715 N   0  0  0  0  0  0  0  0  0  0  0  0
  -20.1831   19.2237   28.5991 C   0  0  0  0  0  0  0  0  0  0  0  0
  -20.8886   20.0583   28.5626 H   0  0  0  0  0  0  0  0  0  0  0  0
  -20.7765   18.3579   28.2789 H   0  0  0  0  0  0  0  0  0  0  0  0
  -19.6865   18.9628   30.0132 C   0  0  0  0  0  0  0  0  0  0  0  0
  -19.0512   19.7718   30.3836 H   0  0  0  0  0  0  0  0  0  0  0  0
  -19.0979   18.0398   30.0569 H   0  0  0  0  0  0  0  0  0  0  0  0
  -20.5338   18.8533   30.6980 H   0  0  0  0  0  0  0  0  0  0  0  0
  -19.1764   20.6536   26.8631 C   0  0  0  0  0  0  0  0  0  0  0  0
  -19.3605   21.5266   27.4985 H   0  0  0  0  0  0  0  0  0  0  0  0
  -18.2296   20.8685   26.3510 H   0  0  0  0  0  0  0  0  0  0  0  0
  -20.2764   20.5088   25.8207 C   0  0  0  0  0  0  0  0  0  0  0  0
  -21.2511   20.3331   26.2856 H   0  0  0  0  0  0  0  0  0  0  0  0
  -20.0733   19.6698   25.1479 H   0  0  0  0  0  0  0  0  0  0  0  0
  -20.3471   21.4193   25.2175 H   0  0  0  0  0  0  0  0  0  0  0  0
  -17.9358   18.5230   27.5528 C   0  0  0  0  0  0  0  0  0  0  0  0
  -18.1134   17.0996   27.4012 N   0  0  0  0  0  0  0  0  0  0  0  0
  -19.2473   16.3673   27.3387 N   0  0  0  0  0  0  0  0  0  0  0  0
  -18.7934   15.1601   27.1989 C   0  0  0  0  0  0  0  0  0  0  0  0
  -19.4400   14.3210   27.1175 H   0  0  0  0  0  0  0  0  0  0  0  0
  -17.4625   15.0353   27.1641 N   0  0  0  0  0  0  0  0  0  0  0  0
  -17.0343   16.2581   27.2902 C   0  0  0  0  0  0  0  0  0  0  0  0
  -15.7243   16.7053   27.3182 N   0  0  0  0  0  0  0  0  0  0  0  0
  -15.5156   17.9744   27.4524 C   0  0  0  0  0  0  0  0  0  0  0  0
  -14.1015   18.4859   27.4849 C   0  0  0  0  0  0  0  0  0  0  0  0
  -14.0700   19.5706   27.6105 H   0  0  0  0  0  0  0  0  0  0  0  0
  -13.6011   18.2226   26.5487 H   0  0  0  0  0  0  0  0  0  0  0  0
  -13.5681   18.0176   28.3176 H   0  0  0  0  0  0  0  0  0  0  0  0
  -16.6234   18.9579   27.5761 C   0  0  0  0  0  0  0  0  0  0  0  0
  -16.4008   19.9813   27.6933 H   0  0  0  0  0  0  0  0  0  0  0  0
  1  2  1  0
  1  9  1  0
  1 16  1  0
  2  3  1  0
  2  4  1  0
  2  5  1  0
  5  6  1  0
  5  7  1  0
  5  8  1  0
  9 10  1  0
  9 11  1  0
  9 12  1  0
 12 13  1  0
 12 14  1  0
 12 15  1  0
 16 17  1  0
 16 29  2  0
 17 18  1  0
 17 22  1  0
 18 19  2  0
 19 20  1  0
 19 21  1  0
 21 22  2  0
 22 23  1  0
 23 24  2  0
 24 25  1  0
 24 29  1  0
 25 26  1  0
 25 27  1  0
 25 28  1  0
 29 30  1  0
M  END
$$$$
