
     RDKit          3D

 19 19  0  0  0  0  0  0  0  0999 V2000
  -23.2791   11.0682   33.5757 Br  0  0  0  0  0  0  0  0  0  0  0  0
  -23.2220   11.5088   31.7590 C   0  0  0  0  0  0  0  0  0  0  0  0
  -23.3077   12.8043   31.3493 C   0  0  0  0  0  0  0  0  0  0  0  0
  -23.4099   13.5968   32.0408 H   0  0  0  0  0  0  0  0  0  0  0  0
  -23.2660   13.1368   29.9614 C   0  0  0  0  0  0  0  0  0  0  0  0
  -23.3588   14.2905   29.5226 O   0  0  0  0  0  0  0  0  0  0  0  0
  -23.1206   12.0909   29.0446 N   0  0  0  0  0  0  0  0  0  0  0  0
  -23.0656   12.3845   27.6114 C   0  0  0  0  0  0  0  0  0  0  0  0
  -22.3727   13.2169   27.4377 H   0  0  0  0  0  0  0  0  0  0  0  0
  -22.6394   11.5299   27.0699 H   0  0  0  0  0  0  0  0  0  0  0  0
  -24.4372   12.7426   27.0421 C   0  0  0  0  0  0  0  0  0  0  0  0
  -24.4034   12.8731   25.9556 H   0  0  0  0  0  0  0  0  0  0  0  0
  -24.7990   13.6803   27.4769 H   0  0  0  0  0  0  0  0  0  0  0  0
  -25.3818   11.7236   27.3482 O   0  0  0  0  0  0  0  0  0  0  0  0
  -25.2258   10.9877   26.7293 H   0  0  0  0  0  0  0  0  0  0  0  0
  -23.0388   10.7677   29.4642 C   0  0  0  0  0  0  0  0  0  0  0  0
  -22.9390   10.0417   28.6947 H   0  0  0  0  0  0  0  0  0  0  0  0
  -23.0864   10.4711   30.7945 C   0  0  0  0  0  0  0  0  0  0  0  0
  -23.0239    9.4657   31.1242 H   0  0  0  0  0  0  0  0  0  0  0  0
  1  2  1  0
  2  3  2  0
  2 18  1  0
  3  4  1  0
  3  5  1  0
  5  6  2  0
  5  7  1  0
  7  8  1  0
  7 16  1  0
  8  9  1  0
  8 10  1  0
  8 11  1  0
 11 12  1  0
 11 13  1  0
 11 14  1  0
 14 15  1  0
 16 17  1  0
 16 18  2  0
 18 19  1  0
M  END
$$$$
