
     RDKit          3D

 30 31  0  0  0  0  0  0  0  0999 V2000
  -23.6930   12.6545   31.2045 N   0  0  0  0  0  0  0  0  0  0  0  0
  -23.9506   11.3383   31.8200 C   0  0  0  0  0  0  0  0  0  0  0  0
  -24.7005   11.4030   32.6132 H   0  0  0  0  0  0  0  0  0  0  0  0
  -24.4015   10.6649   31.0801 H   0  0  0  0  0  0  0  0  0  0  0  0
  -22.6576   10.7058   32.3126 C   0  0  0  0  0  0  0  0  0  0  0  0
  -22.1316   11.3445   33.0272 H   0  0  0  0  0  0  0  0  0  0  0  0
  -21.9727   10.5161   31.4789 H   0  0  0  0  0  0  0  0  0  0  0  0
  -22.8664    9.7479   32.8002 H   0  0  0  0  0  0  0  0  0  0  0  0
  -23.7216   13.7657   32.1768 C   0  0  0  0  0  0  0  0  0  0  0  0
  -23.3065   13.4559   33.1420 H   0  0  0  0  0  0  0  0  0  0  0  0
  -23.0739   14.5843   31.8376 H   0  0  0  0  0  0  0  0  0  0  0  0
  -25.1370   14.2988   32.3492 C   0  0  0  0  0  0  0  0  0  0  0  0
  -25.8149   13.5271   32.7262 H   0  0  0  0  0  0  0  0  0  0  0  0
  -25.5405   14.6593   31.3979 H   0  0  0  0  0  0  0  0  0  0  0  0
  -25.1428   15.1319   33.0589 H   0  0  0  0  0  0  0  0  0  0  0  0
  -23.4384   12.8543   29.8012 C   0  0  0  0  0  0  0  0  0  0  0  0
  -24.4432   13.3770   28.9080 N   0  0  0  0  0  0  0  0  0  0  0  0
  -25.7142   13.7608   29.1594 N   0  0  0  0  0  0  0  0  0  0  0  0
  -26.1284   14.1397   27.9898 C   0  0  0  0  0  0  0  0  0  0  0  0
  -27.1127   14.5077   27.8328 H   0  0  0  0  0  0  0  0  0  0  0  0
  -25.2422   14.0387   26.9936 N   0  0  0  0  0  0  0  0  0  0  0  0
  -24.1797   13.5593   27.5730 C   0  0  0  0  0  0  0  0  0  0  0  0
  -22.9565   13.2579   26.9986 N   0  0  0  0  0  0  0  0  0  0  0  0
  -22.0242   12.7865   27.7607 C   0  0  0  0  0  0  0  0  0  0  0  0
  -20.6860   12.4518   27.1612 C   0  0  0  0  0  0  0  0  0  0  0  0
  -19.9976   12.0567   27.9118 H   0  0  0  0  0  0  0  0  0  0  0  0
  -20.2516   13.3542   26.7218 H   0  0  0  0  0  0  0  0  0  0  0  0
  -20.8206   11.7025   26.3752 H   0  0  0  0  0  0  0  0  0  0  0  0
  -22.2203   12.5602   29.2168 C   0  0  0  0  0  0  0  0  0  0  0  0
  -21.4317   12.1646   29.7933 H   0  0  0  0  0  0  0  0  0  0  0  0
  1  2  1  0
  1  9  1  0
  1 16  1  0
  2  3  1  0
  2  4  1  0
  2  5  1  0
  5  6  1  0
  5  7  1  0
  5  8  1  0
  9 10  1  0
  9 11  1  0
  9 12  1  0
 12 13  1  0
 12 14  1  0
 12 15  1  0
 16 17  1  0
 16 29  2  0
 17 18  1  0
 17 22  1  0
 18 19  2  0
 19 20  1  0
 19 21  1  0
 21 22  2  0
 22 23  1  0
 23 24  2  0
 24 25  1  0
 24 29  1  0
 25 26  1  0
 25 27  1  0
 25 28  1  0
 29 30  1  0
M  END
$$$$
