
     RDKit          3D

 26 26  0  0  0  0  0  0  0  0999 V2000
  -22.7994   13.1552   27.7279 S   0  0  0  0  0  0  0  0  0  0  0  0
  -23.4125   12.6831   26.5056 O   0  0  0  0  0  0  0  0  0  0  0  0
  -23.3456   14.2713   28.4703 O   0  0  0  0  0  0  0  0  0  0  0  0
  -21.1820   13.5177   27.4276 N   0  0  0  0  0  0  0  0  0  0  0  0
  -20.7692   14.1997   28.0688 H   0  0  0  0  0  0  0  0  0  0  0  0
  -20.2839   12.4701   26.9054 C   0  0  0  0  0  0  0  0  0  0  0  0
  -19.6602   12.1180   27.7344 H   0  0  0  0  0  0  0  0  0  0  0  0
  -20.8559   11.6190   26.5200 H   0  0  0  0  0  0  0  0  0  0  0  0
  -19.3803   13.0424   25.8106 C   0  0  0  0  0  0  0  0  0  0  0  0
  -18.6495   12.2915   25.4831 H   0  0  0  0  0  0  0  0  0  0  0  0
  -19.9897   13.2716   24.9272 H   0  0  0  0  0  0  0  0  0  0  0  0
  -18.6569   14.3009   26.2375 C   0  0  0  0  0  0  0  0  0  0  0  0
  -17.7154   14.2518   27.2723 C   0  0  0  0  0  0  0  0  0  0  0  0
  -17.5160   13.3378   27.7687 H   0  0  0  0  0  0  0  0  0  0  0  0
  -17.0351   15.4047   27.6567 C   0  0  0  0  0  0  0  0  0  0  0  0
  -16.3208   15.3801   28.4385 H   0  0  0  0  0  0  0  0  0  0  0  0
  -17.3066   16.5937   26.9952 C   0  0  0  0  0  0  0  0  0  0  0  0
  -16.6524   17.7044   27.3641 F   0  0  0  0  0  0  0  0  0  0  0  0
  -18.2306   16.6694   25.9632 C   0  0  0  0  0  0  0  0  0  0  0  0
  -18.4105   17.5903   25.4736 H   0  0  0  0  0  0  0  0  0  0  0  0
  -18.9084   15.5125   25.5857 C   0  0  0  0  0  0  0  0  0  0  0  0
  -19.6116   15.5540   24.7927 H   0  0  0  0  0  0  0  0  0  0  0  0
  -22.6565   11.7797   28.8484 C   0  0  0  0  0  0  0  0  0  0  0  0
  -22.1848   10.9415   28.3326 H   0  0  0  0  0  0  0  0  0  0  0  0
  -23.6637   11.4970   29.1627 H   0  0  0  0  0  0  0  0  0  0  0  0
  -22.0715   12.0886   29.7163 H   0  0  0  0  0  0  0  0  0  0  0  0
  1  2  2  0
  1  3  2  0
  1  4  1  0
  1 23  1  0
  4  5  1  0
  4  6  1  0
  6  7  1  0
  6  8  1  0
  6  9  1  0
  9 10  1  0
  9 11  1  0
  9 12  1  0
 12 13  1  0
 12 21  2  0
 13 14  1  0
 13 15  2  0
 15 16  1  0
 15 17  1  0
 17 18  1  0
 17 19  2  0
 19 20  1  0
 19 21  1  0
 21 22  1  0
 23 24  1  0
 23 25  1  0
 23 26  1  0
M  END
$$$$
