
     RDKit          3D

 30 31  0  0  0  0  0  0  0  0999 V2000
  -17.9652   16.4421   26.6099 N   0  0  0  0  0  0  0  0  0  0  0  0
  -18.4852   17.7948   26.3317 C   0  0  0  0  0  0  0  0  0  0  0  0
  -17.7171   18.4421   25.8996 H   0  0  0  0  0  0  0  0  0  0  0  0
  -19.2584   17.7422   25.5547 H   0  0  0  0  0  0  0  0  0  0  0  0
  -19.1056   18.4062   27.5790 C   0  0  0  0  0  0  0  0  0  0  0  0
  -18.3985   18.4527   28.4115 H   0  0  0  0  0  0  0  0  0  0  0  0
  -19.9672   17.8190   27.9152 H   0  0  0  0  0  0  0  0  0  0  0  0
  -19.4536   19.4230   27.3694 H   0  0  0  0  0  0  0  0  0  0  0  0
  -16.6356   16.4521   27.2525 C   0  0  0  0  0  0  0  0  0  0  0  0
  -16.5518   17.2731   27.9727 H   0  0  0  0  0  0  0  0  0  0  0  0
  -16.4923   15.5386   27.8438 H   0  0  0  0  0  0  0  0  0  0  0  0
  -15.5302   16.5403   26.2095 C   0  0  0  0  0  0  0  0  0  0  0  0
  -15.6062   17.4580   25.6186 H   0  0  0  0  0  0  0  0  0  0  0  0
  -15.5745   15.6945   25.5164 H   0  0  0  0  0  0  0  0  0  0  0  0
  -14.5501   16.5302   26.6964 H   0  0  0  0  0  0  0  0  0  0  0  0
  -18.6679   15.2255   26.2937 C   0  0  0  0  0  0  0  0  0  0  0  0
  -18.3402   14.4316   25.1348 N   0  0  0  0  0  0  0  0  0  0  0  0
  -17.3974   14.6264   24.1866 N   0  0  0  0  0  0  0  0  0  0  0  0
  -17.5671   13.6019   23.4089 C   0  0  0  0  0  0  0  0  0  0  0  0
  -16.9714   13.4473   22.5428 H   0  0  0  0  0  0  0  0  0  0  0  0
  -18.5372   12.7524   23.7627 N   0  0  0  0  0  0  0  0  0  0  0  0
  -19.0234   13.2749   24.8513 C   0  0  0  0  0  0  0  0  0  0  0  0
  -20.0570   12.7981   25.6395 N   0  0  0  0  0  0  0  0  0  0  0  0
  -20.3864   13.4767   26.6899 C   0  0  0  0  0  0  0  0  0  0  0  0
  -21.5056   12.9797   27.5631 C   0  0  0  0  0  0  0  0  0  0  0  0
  -21.6837   13.6498   28.4073 H   0  0  0  0  0  0  0  0  0  0  0  0
  -21.2510   11.9873   27.9459 H   0  0  0  0  0  0  0  0  0  0  0  0
  -22.4215   12.9077   26.9689 H   0  0  0  0  0  0  0  0  0  0  0  0
  -19.6994   14.7376   27.0747 C   0  0  0  0  0  0  0  0  0  0  0  0
  -20.0118   15.2593   27.9354 H   0  0  0  0  0  0  0  0  0  0  0  0
  1  2  1  0
  1  9  1  0
  1 16  1  0
  2  3  1  0
  2  4  1  0
  2  5  1  0
  5  6  1  0
  5  7  1  0
  5  8  1  0
  9 10  1  0
  9 11  1  0
  9 12  1  0
 12 13  1  0
 12 14  1  0
 12 15  1  0
 16 17  1  0
 16 29  2  0
 17 18  1  0
 17 22  1  0
 18 19  2  0
 19 20  1  0
 19 21  1  0
 21 22  2  0
 22 23  1  0
 23 24  2  0
 24 25  1  0
 24 29  1  0
 25 26  1  0
 25 27  1  0
 25 28  1  0
 29 30  1  0
M  END
$$$$
