F217_87
     RDKit          3D

 28 29  0  0  0  0  0  0  0  0999 V2000
  -17.0404   14.9079   25.0526 O   0  0  0  0  0  0  0  0  0  0  0  0
  -17.8483   15.1252   25.9405 C   0  0  0  0  0  0  0  0  0  0  0  0
  -17.5324   15.9533   26.9161 N   0  0  0  0  0  0  0  0  0  0  0  0
  -16.6174   16.3707   26.8735 H   0  0  0  0  0  0  0  0  0  0  0  0
  -18.1746   16.1492   27.6638 H   0  0  0  0  0  0  0  0  0  0  0  0
  -19.2194   14.5076   26.0133 C   0  0  0  0  0  0  0  0  0  0  0  0
  -19.9650   15.2871   25.8212 H   0  0  0  0  0  0  0  0  0  0  0  0
  -19.3052   13.7650   25.2109 H   0  0  0  0  0  0  0  0  0  0  0  0
  -19.4562   13.8632   27.3727 C   0  0  0  0  0  0  0  0  0  0  0  0
  -19.8453   14.5908   28.0933 H   0  0  0  0  0  0  0  0  0  0  0  0
  -18.5226   13.4753   27.7987 H   0  0  0  0  0  0  0  0  0  0  0  0
  -20.3914   12.7575   27.2857 N   0  0  0  0  0  0  0  0  0  0  0  0
  -20.1463   11.5072   26.7664 C   0  0  0  0  0  0  0  0  0  0  0  0
  -18.8364   11.1036   26.1902 C   0  0  0  0  0  0  0  0  0  0  0  0
  -18.8450   10.0411   25.9295 H   0  0  0  0  0  0  0  0  0  0  0  0
  -18.0267   11.2666   26.9069 H   0  0  0  0  0  0  0  0  0  0  0  0
  -18.6253   11.6715   25.2790 H   0  0  0  0  0  0  0  0  0  0  0  0
  -21.1850   10.7438   26.8456 N   0  0  0  0  0  0  0  0  0  0  0  0
  -22.1660   11.5073   27.4386 C   0  0  0  0  0  0  0  0  0  0  0  0
  -21.6843   12.7701   27.7178 C   0  0  0  0  0  0  0  0  0  0  0  0
  -22.4647   13.7652   28.3243 C   0  0  0  0  0  0  0  0  0  0  0  0
  -22.0717   14.7287   28.5238 H   0  0  0  0  0  0  0  0  0  0  0  0
  -23.7729   13.4445   28.6528 C   0  0  0  0  0  0  0  0  0  0  0  0
  -24.3962   14.1666   29.1121 H   0  0  0  0  0  0  0  0  0  0  0  0
  -24.2843   12.1558   28.3776 C   0  0  0  0  0  0  0  0  0  0  0  0
  -25.2878   11.9270   28.6351 H   0  0  0  0  0  0  0  0  0  0  0  0
  -23.4893   11.1909   27.7741 C   0  0  0  0  0  0  0  0  0  0  0  0
  -23.8627   10.2247   27.5625 H   0  0  0  0  0  0  0  0  0  0  0  0
  1  2  2  0
  2  3  1  0
  2  6  1  0
  3  4  1  0
  3  5  1  0
  6  7  1  0
  6  8  1  0
  6  9  1  0
  9 10  1  0
  9 11  1  0
  9 12  1  0
 12 13  1  0
 12 20  1  0
 13 14  1  0
 13 18  2  0
 14 15  1  0
 14 16  1  0
 14 17  1  0
 18 19  1  0
 19 20  1  0
 19 27  2  0
 20 21  2  0
 21 22  1  0
 21 23  1  0
 23 24  1  0
 23 25  2  0
 25 26  1  0
 25 27  1  0
 27 28  1  0
M  END
$$$$
