F126_67
     RDKit          3D

 23 23  0  0  0  0  0  0  0  0999 V2000
  -26.4180   14.6086   27.9732 Cl  0  0  0  0  0  0  0  0  0  0  0  0
  -25.6661   13.5334   29.0884 C   0  0  0  0  0  0  0  0  0  0  0  0
  -24.5192   12.7811   28.7883 C   0  0  0  0  0  0  0  0  0  0  0  0
  -23.7942   12.7939   27.5003 C   0  0  0  0  0  0  0  0  0  0  0  0
  -22.5917   12.7155   27.2977 O   0  0  0  0  0  0  0  0  0  0  0  0
  -24.5249   12.9097   26.3632 N   0  0  0  0  0  0  0  0  0  0  0  0
  -24.0291   12.9261   25.4637 H   0  0  0  0  0  0  0  0  0  0  0  0
  -25.5482   12.9887   26.4214 H   0  0  0  0  0  0  0  0  0  0  0  0
  -24.0144   11.9668   29.7491 N   0  0  0  0  0  0  0  0  0  0  0  0
  -24.5914   11.8840   30.9381 C   0  0  0  0  0  0  0  0  0  0  0  0
  -23.9904   10.9637   31.9700 C   0  0  0  0  0  0  0  0  0  0  0  0
  -24.7280   10.1874   32.2098 H   0  0  0  0  0  0  0  0  0  0  0  0
  -22.7437   10.2706   31.4235 C   0  0  0  0  0  0  0  0  0  0  0  0
  -21.9507   10.9893   31.1847 H   0  0  0  0  0  0  0  0  0  0  0  0
  -22.9738    9.7154   30.5068 H   0  0  0  0  0  0  0  0  0  0  0  0
  -22.3432    9.5606   32.1548 H   0  0  0  0  0  0  0  0  0  0  0  0
  -23.6770   11.7223   33.2597 C   0  0  0  0  0  0  0  0  0  0  0  0
  -22.9232   12.5012   33.0990 H   0  0  0  0  0  0  0  0  0  0  0  0
  -23.2953   11.0399   34.0270 H   0  0  0  0  0  0  0  0  0  0  0  0
  -24.5752   12.2069   33.6573 H   0  0  0  0  0  0  0  0  0  0  0  0
  -25.6838   12.5899   31.2447 N   0  0  0  0  0  0  0  0  0  0  0  0
  -26.2239   13.4013   30.3545 C   0  0  0  0  0  0  0  0  0  0  0  0
  -27.0912   13.9528   30.6181 H   0  0  0  0  0  0  0  0  0  0  0  0
  1  2  1  0
  2  3  1  0
  2 22  2  0
  3  4  1  0
  3  9  2  0
  4  5  2  0
  4  6  1  0
  6  7  1  0
  6  8  1  0
  9 10  1  0
 10 11  1  0
 10 21  2  0
 11 12  1  0
 11 13  1  0
 11 17  1  0
 13 14  1  0
 13 15  1  0
 13 16  1  0
 17 18  1  0
 17 19  1  0
 17 20  1  0
 21 22  1  0
 22 23  1  0
M  END
$$$$
