F616_72
     RDKit          3D

 26 26  0  0  0  0  0  0  0  0999 V2000
  -19.1932   12.3977   27.4076 S   0  0  0  0  0  0  0  0  0  0  0  0
  -18.3860   11.2164   27.1939 O   0  0  0  0  0  0  0  0  0  0  0  0
  -19.6345   12.7876   28.7299 O   0  0  0  0  0  0  0  0  0  0  0  0
  -20.5721   12.3031   26.4446 N   0  0  0  0  0  0  0  0  0  0  0  0
  -20.6069   11.4902   25.8244 H   0  0  0  0  0  0  0  0  0  0  0  0
  -21.8615   12.7956   26.9655 C   0  0  0  0  0  0  0  0  0  0  0  0
  -21.6667   13.7116   27.5342 H   0  0  0  0  0  0  0  0  0  0  0  0
  -22.5484   13.0385   26.1474 H   0  0  0  0  0  0  0  0  0  0  0  0
  -22.4904   11.7560   27.8963 C   0  0  0  0  0  0  0  0  0  0  0  0
  -22.8459   10.8903   27.3223 H   0  0  0  0  0  0  0  0  0  0  0  0
  -21.7187   11.3689   28.5738 H   0  0  0  0  0  0  0  0  0  0  0  0
  -23.6257   12.3141   28.7265 C   0  0  0  0  0  0  0  0  0  0  0  0
  -24.7843   12.7891   28.1008 C   0  0  0  0  0  0  0  0  0  0  0  0
  -24.8652   12.7723   27.0450 H   0  0  0  0  0  0  0  0  0  0  0  0
  -25.8384   13.2878   28.8624 C   0  0  0  0  0  0  0  0  0  0  0  0
  -26.7199   13.6503   28.4004 H   0  0  0  0  0  0  0  0  0  0  0  0
  -25.7174   13.3013   30.2445 C   0  0  0  0  0  0  0  0  0  0  0  0
  -26.7313   13.7810   30.9791 F   0  0  0  0  0  0  0  0  0  0  0  0
  -24.5828   12.8319   30.8903 C   0  0  0  0  0  0  0  0  0  0  0  0
  -24.5237   12.8494   31.9469 H   0  0  0  0  0  0  0  0  0  0  0  0
  -23.5321   12.3365   30.1218 C   0  0  0  0  0  0  0  0  0  0  0  0
  -22.6619   11.9667   30.6026 H   0  0  0  0  0  0  0  0  0  0  0  0
  -18.3483   13.7892   26.6883 C   0  0  0  0  0  0  0  0  0  0  0  0
  -18.0613   13.5468   25.6635 H   0  0  0  0  0  0  0  0  0  0  0  0
  -17.4532   13.9827   27.2837 H   0  0  0  0  0  0  0  0  0  0  0  0
  -19.0072   14.6585   26.7183 H   0  0  0  0  0  0  0  0  0  0  0  0
  1  2  2  0
  1  3  2  0
  1  4  1  0
  1 23  1  0
  4  5  1  0
  4  6  1  0
  6  7  1  0
  6  8  1  0
  6  9  1  0
  9 10  1  0
  9 11  1  0
  9 12  1  0
 12 13  1  0
 12 21  2  0
 13 14  1  0
 13 15  2  0
 15 16  1  0
 15 17  1  0
 17 18  1  0
 17 19  2  0
 19 20  1  0
 19 21  1  0
 21 22  1  0
 23 24  1  0
 23 25  1  0
 23 26  1  0
M  END
$$$$
