F529_57
     RDKit          3D

 23 23  0  0  0  0  0  0  0  0999 V2000
  -19.8214   12.5750   27.5430 S   0  0  0  0  0  0  0  0  0  0  0  0
  -20.3867   13.5725   28.4374 O   0  0  0  0  0  0  0  0  0  0  0  0
  -20.6047   11.4286   27.1233 O   0  0  0  0  0  0  0  0  0  0  0  0
  -18.3217   11.9818   28.2812 C   0  0  0  0  0  0  0  0  0  0  0  0
  -17.6730   12.8318   28.5028 H   0  0  0  0  0  0  0  0  0  0  0  0
  -17.8319   11.2888   27.5945 H   0  0  0  0  0  0  0  0  0  0  0  0
  -18.5812   11.4632   29.2059 H   0  0  0  0  0  0  0  0  0  0  0  0
  -19.2552   13.4002   26.0821 C   0  0  0  0  0  0  0  0  0  0  0  0
  -18.9995   14.7818   26.0380 C   0  0  0  0  0  0  0  0  0  0  0  0
  -19.2082   15.5576   27.1755 N   0  0  0  0  0  0  0  0  0  0  0  0
  -19.6235   15.0857   27.9918 H   0  0  0  0  0  0  0  0  0  0  0  0
  -18.9216   16.9667   27.2950 C   0  0  0  0  0  0  0  0  0  0  0  0
  -17.8637   17.1729   27.1005 H   0  0  0  0  0  0  0  0  0  0  0  0
  -19.1435   17.2991   28.3140 H   0  0  0  0  0  0  0  0  0  0  0  0
  -19.5409   17.5556   26.6115 H   0  0  0  0  0  0  0  0  0  0  0  0
  -18.5104   15.3696   24.8638 C   0  0  0  0  0  0  0  0  0  0  0  0
  -18.2880   16.4029   24.8312 H   0  0  0  0  0  0  0  0  0  0  0  0
  -18.3129   14.5954   23.7283 C   0  0  0  0  0  0  0  0  0  0  0  0
  -17.9510   15.0427   22.8381 H   0  0  0  0  0  0  0  0  0  0  0  0
  -18.5920   13.2330   23.7543 C   0  0  0  0  0  0  0  0  0  0  0  0
  -18.4476   12.6448   22.8830 H   0  0  0  0  0  0  0  0  0  0  0  0
  -19.0567   12.6421   24.9254 C   0  0  0  0  0  0  0  0  0  0  0  0
  -19.2626   11.6018   24.9399 H   0  0  0  0  0  0  0  0  0  0  0  0
  1  2  2  0
  1  3  2  0
  1  4  1  0
  1  8  1  0
  4  5  1  0
  4  6  1  0
  4  7  1  0
  8  9  1  0
  8 22  2  0
  9 10  1  0
  9 16  2  0
 10 11  1  0
 10 12  1  0
 12 13  1  0
 12 14  1  0
 12 15  1  0
 16 17  1  0
 16 18  1  0
 18 19  1  0
 18 20  2  0
 20 21  1  0
 20 22  1  0
 22 23  1  0
M  END
$$$$
