F362_54
     RDKit          3D

 30 31  0  0  0  0  0  0  0  0999 V2000
  -25.0786   14.5464   30.0261 N   0  0  0  0  0  0  0  0  0  0  0  0
  -24.7480   15.9760   30.1833 C   0  0  0  0  0  0  0  0  0  0  0  0
  -24.2860   16.3855   29.2808 H   0  0  0  0  0  0  0  0  0  0  0  0
  -25.6703   16.5591   30.2998 H   0  0  0  0  0  0  0  0  0  0  0  0
  -23.8839   16.2022   31.4149 C   0  0  0  0  0  0  0  0  0  0  0  0
  -22.9611   15.6168   31.3851 H   0  0  0  0  0  0  0  0  0  0  0  0
  -24.4209   15.9184   32.3267 H   0  0  0  0  0  0  0  0  0  0  0  0
  -23.6147   17.2601   31.4994 H   0  0  0  0  0  0  0  0  0  0  0  0
  -26.5315   14.2900   29.9635 C   0  0  0  0  0  0  0  0  0  0  0  0
  -26.7549   13.2361   30.1617 H   0  0  0  0  0  0  0  0  0  0  0  0
  -27.0500   14.8451   30.7559 H   0  0  0  0  0  0  0  0  0  0  0  0
  -27.0990   14.7130   28.6158 C   0  0  0  0  0  0  0  0  0  0  0  0
  -26.6407   14.1561   27.7930 H   0  0  0  0  0  0  0  0  0  0  0  0
  -26.9262   15.7781   28.4326 H   0  0  0  0  0  0  0  0  0  0  0  0
  -28.1783   14.5336   28.5875 H   0  0  0  0  0  0  0  0  0  0  0  0
  -24.0981   13.4950   29.9411 C   0  0  0  0  0  0  0  0  0  0  0  0
  -24.1730   12.3107   30.7611 N   0  0  0  0  0  0  0  0  0  0  0  0
  -25.0850   11.9552   31.6925 N   0  0  0  0  0  0  0  0  0  0  0  0
  -24.6431   10.8024   32.0910 C   0  0  0  0  0  0  0  0  0  0  0  0
  -25.1414   10.2361   32.8393 H   0  0  0  0  0  0  0  0  0  0  0  0
  -23.5224   10.3700   31.5037 N   0  0  0  0  0  0  0  0  0  0  0  0
  -23.2271   11.3203   30.6645 C   0  0  0  0  0  0  0  0  0  0  0  0
  -22.1533   11.3866   29.7930 N   0  0  0  0  0  0  0  0  0  0  0  0
  -22.0445   12.4301   29.0372 C   0  0  0  0  0  0  0  0  0  0  0  0
  -20.8873   12.5260   28.0812 C   0  0  0  0  0  0  0  0  0  0  0  0
  -20.9127   13.4585   27.5126 H   0  0  0  0  0  0  0  0  0  0  0  0
  -20.9248   11.6843   27.3838 H   0  0  0  0  0  0  0  0  0  0  0  0
  -19.9501   12.4803   28.6442 H   0  0  0  0  0  0  0  0  0  0  0  0
  -23.0234   13.5483   29.0726 C   0  0  0  0  0  0  0  0  0  0  0  0
  -22.8850   14.3820   28.4430 H   0  0  0  0  0  0  0  0  0  0  0  0
  1  2  1  0
  1  9  1  0
  1 16  1  0
  2  3  1  0
  2  4  1  0
  2  5  1  0
  5  6  1  0
  5  7  1  0
  5  8  1  0
  9 10  1  0
  9 11  1  0
  9 12  1  0
 12 13  1  0
 12 14  1  0
 12 15  1  0
 16 17  1  0
 16 29  2  0
 17 18  1  0
 17 22  1  0
 18 19  2  0
 19 20  1  0
 19 21  1  0
 21 22  2  0
 22 23  1  0
 23 24  2  0
 24 25  1  0
 24 29  1  0
 25 26  1  0
 25 27  1  0
 25 28  1  0
 29 30  1  0
M  END
$$$$
