F217_22
     RDKit          3D

 28 29  0  0  0  0  0  0  0  0999 V2000
  -22.5775   11.4085   32.1730 O   0  0  0  0  0  0  0  0  0  0  0  0
  -23.0943   11.3799   31.0683 C   0  0  0  0  0  0  0  0  0  0  0  0
  -22.9047   10.3327   30.2907 N   0  0  0  0  0  0  0  0  0  0  0  0
  -22.3280    9.5956   30.6613 H   0  0  0  0  0  0  0  0  0  0  0  0
  -23.3134   10.2817   29.3740 H   0  0  0  0  0  0  0  0  0  0  0  0
  -23.9592   12.4759   30.5048 C   0  0  0  0  0  0  0  0  0  0  0  0
  -24.9303   12.0491   30.2303 H   0  0  0  0  0  0  0  0  0  0  0  0
  -24.1361   13.2152   31.2953 H   0  0  0  0  0  0  0  0  0  0  0  0
  -23.2986   13.1256   29.2962 C   0  0  0  0  0  0  0  0  0  0  0  0
  -23.1113   12.3913   28.5051 H   0  0  0  0  0  0  0  0  0  0  0  0
  -22.3232   13.5545   29.5569 H   0  0  0  0  0  0  0  0  0  0  0  0
  -24.1149   14.1927   28.7488 N   0  0  0  0  0  0  0  0  0  0  0  0
  -24.8778   14.1454   27.6049 C   0  0  0  0  0  0  0  0  0  0  0  0
  -24.9668   12.9460   26.7305 C   0  0  0  0  0  0  0  0  0  0  0  0
  -25.7032   13.1057   25.9372 H   0  0  0  0  0  0  0  0  0  0  0  0
  -25.2754   12.0667   27.3026 H   0  0  0  0  0  0  0  0  0  0  0  0
  -24.0016   12.7425   26.2570 H   0  0  0  0  0  0  0  0  0  0  0  0
  -25.4966   15.2595   27.3955 N   0  0  0  0  0  0  0  0  0  0  0  0
  -25.1370   16.0881   28.4352 C   0  0  0  0  0  0  0  0  0  0  0  0
  -24.2714   15.4347   29.2887 C   0  0  0  0  0  0  0  0  0  0  0  0
  -23.7384   16.0356   30.4385 C   0  0  0  0  0  0  0  0  0  0  0  0
  -23.0720   15.5129   31.0751 H   0  0  0  0  0  0  0  0  0  0  0  0
  -24.1129   17.3419   30.7131 C   0  0  0  0  0  0  0  0  0  0  0  0
  -23.7336   17.8327   31.5711 H   0  0  0  0  0  0  0  0  0  0  0  0
  -25.0005   18.0275   29.8528 C   0  0  0  0  0  0  0  0  0  0  0  0
  -25.2767   19.0270   30.0774 H   0  0  0  0  0  0  0  0  0  0  0  0
  -25.5110   17.4083   28.7200 C   0  0  0  0  0  0  0  0  0  0  0  0
  -26.1741   17.9129   28.0693 H   0  0  0  0  0  0  0  0  0  0  0  0
  1  2  2  0
  2  3  1  0
  2  6  1  0
  3  4  1  0
  3  5  1  0
  6  7  1  0
  6  8  1  0
  6  9  1  0
  9 10  1  0
  9 11  1  0
  9 12  1  0
 12 13  1  0
 12 20  1  0
 13 14  1  0
 13 18  2  0
 14 15  1  0
 14 16  1  0
 14 17  1  0
 18 19  1  0
 19 20  1  0
 19 27  2  0
 20 21  2  0
 21 22  1  0
 21 23  1  0
 23 24  1  0
 23 25  2  0
 25 26  1  0
 25 27  1  0
 27 28  1  0
M  END
$$$$
