F309_22
     RDKit          3D

 14 14  0  0  0  0  0  0  0  0999 V2000
  -25.5756   14.1859   26.7170 O   0  0  0  0  0  0  0  0  0  0  0  0
  -24.8521   13.1516   26.7211 C   0  0  0  0  0  0  0  0  0  0  0  0
  -24.6641   12.5141   25.6429 O   0  0  0  0  0  0  0  0  0  0  0  0
  -24.2359   12.6974   27.9612 C   0  0  0  0  0  0  0  0  0  0  0  0
  -24.3454   13.2751   29.2152 C   0  0  0  0  0  0  0  0  0  0  0  0
  -25.1438   14.5077   29.5249 C   0  0  0  0  0  0  0  0  0  0  0  0
  -25.0716   14.7700   30.5854 H   0  0  0  0  0  0  0  0  0  0  0  0
  -26.2028   14.3498   29.2973 H   0  0  0  0  0  0  0  0  0  0  0  0
  -24.7721   15.3629   28.9505 H   0  0  0  0  0  0  0  0  0  0  0  0
  -23.6246   12.5864   30.2041 C   0  0  0  0  0  0  0  0  0  0  0  0
  -23.5938   12.8819   31.2205 H   0  0  0  0  0  0  0  0  0  0  0  0
  -22.9653   11.4929   29.7229 C   0  0  0  0  0  0  0  0  0  0  0  0
  -22.3578   10.8157   30.2652 H   0  0  0  0  0  0  0  0  0  0  0  0
  -23.2189   11.2858   28.0333 S   0  0  0  0  0  0  0  0  0  0  0  0
  1  2  1  0
  2  3  2  0
  2  4  1  0
  4  5  2  0
  4 14  1  0
  5  6  1  0
  5 10  1  0
  6  7  1  0
  6  8  1  0
  6  9  1  0
 10 11  1  0
 10 12  2  0
 12 13  1  0
 12 14  1  0
M  END
$$$$
