F199_99
     RDKit          3D

 25 26  0  0  0  0  0  0  0  0999 V2000
  -20.3838   12.4191   28.9504 O   0  0  0  0  0  0  0  0  0  0  0  0
  -20.9206   12.6523   27.8695 C   0  0  0  0  0  0  0  0  0  0  0  0
  -22.2918   12.6502   27.7877 N   0  0  0  0  0  0  0  0  0  0  0  0
  -22.6517   12.8553   26.8452 H   0  0  0  0  0  0  0  0  0  0  0  0
  -23.1987   12.4079   28.8039 C   0  0  0  0  0  0  0  0  0  0  0  0
  -22.8118   11.9519   30.0126 C   0  0  0  0  0  0  0  0  0  0  0  0
  -21.8613   11.7088   30.4066 H   0  0  0  0  0  0  0  0  0  0  0  0
  -23.9602   11.8414   30.7252 N   0  0  0  0  0  0  0  0  0  0  0  0
  -24.1178   11.3962   32.0856 C   0  0  0  0  0  0  0  0  0  0  0  0
  -23.1423   11.1238   32.4954 H   0  0  0  0  0  0  0  0  0  0  0  0
  -24.7805   10.5272   32.0903 H   0  0  0  0  0  0  0  0  0  0  0  0
  -24.5519   12.2130   32.6677 H   0  0  0  0  0  0  0  0  0  0  0  0
  -25.0530   12.2117   30.0057 N   0  0  0  0  0  0  0  0  0  0  0  0
  -24.5847   12.5578   28.8326 C   0  0  0  0  0  0  0  0  0  0  0  0
  -25.1925   12.8998   28.0353 H   0  0  0  0  0  0  0  0  0  0  0  0
  -20.2124   12.9383   26.6382 C   0  0  0  0  0  0  0  0  0  0  0  0
  -20.6606   12.5579   25.4678 N   0  0  0  0  0  0  0  0  0  0  0  0
  -19.7847   12.9732   24.5573 O   0  0  0  0  0  0  0  0  0  0  0  0
  -18.7717   13.6208   25.1416 C   0  0  0  0  0  0  0  0  0  0  0  0
  -17.7137   14.1445   24.2633 C   0  0  0  0  0  0  0  0  0  0  0  0
  -16.9336   14.6468   24.8433 H   0  0  0  0  0  0  0  0  0  0  0  0
  -18.1281   14.8664   23.5530 H   0  0  0  0  0  0  0  0  0  0  0  0
  -17.2474   13.3332   23.6969 H   0  0  0  0  0  0  0  0  0  0  0  0
  -19.0061   13.6184   26.4601 C   0  0  0  0  0  0  0  0  0  0  0  0
  -18.4016   14.0463   27.2171 H   0  0  0  0  0  0  0  0  0  0  0  0
  1  2  2  0
  2  3  1  0
  2 16  1  0
  3  4  1  0
  3  5  1  0
  5  6  2  0
  5 14  1  0
  6  7  1  0
  6  8  1  0
  8  9  1  0
  8 13  1  0
  9 10  1  0
  9 11  1  0
  9 12  1  0
 13 14  2  0
 14 15  1  0
 16 17  2  0
 16 24  1  0
 17 18  1  0
 18 19  1  0
 19 20  1  0
 19 24  2  0
 20 21  1  0
 20 22  1  0
 20 23  1  0
 24 25  1  0
M  END
$$$$
