F362_18
     RDKit          3D

 30 31  0  0  0  0  0  0  0  0999 V2000
  -24.2652   14.5642   31.5745 N   0  0  0  0  0  0  0  0  0  0  0  0
  -24.1310   13.6172   32.6983 C   0  0  0  0  0  0  0  0  0  0  0  0
  -23.0886   13.3311   32.8633 H   0  0  0  0  0  0  0  0  0  0  0  0
  -24.4247   14.1088   33.6344 H   0  0  0  0  0  0  0  0  0  0  0  0
  -25.0267   12.4040   32.4972 C   0  0  0  0  0  0  0  0  0  0  0  0
  -24.8154   11.8858   31.5580 H   0  0  0  0  0  0  0  0  0  0  0  0
  -26.0823   12.6962   32.4782 H   0  0  0  0  0  0  0  0  0  0  0  0
  -24.8901   11.6923   33.3180 H   0  0  0  0  0  0  0  0  0  0  0  0
  -24.4009   15.9682   32.0115 C   0  0  0  0  0  0  0  0  0  0  0  0
  -24.7071   16.6123   31.1801 H   0  0  0  0  0  0  0  0  0  0  0  0
  -25.2046   16.0595   32.7534 H   0  0  0  0  0  0  0  0  0  0  0  0
  -23.1036   16.4716   32.6287 C   0  0  0  0  0  0  0  0  0  0  0  0
  -22.2773   16.4386   31.9123 H   0  0  0  0  0  0  0  0  0  0  0  0
  -22.8176   15.8649   33.4936 H   0  0  0  0  0  0  0  0  0  0  0  0
  -23.2215   17.5069   32.9634 H   0  0  0  0  0  0  0  0  0  0  0  0
  -24.2664   14.1769   30.1874 C   0  0  0  0  0  0  0  0  0  0  0  0
  -25.1810   14.7537   29.2327 N   0  0  0  0  0  0  0  0  0  0  0  0
  -26.1391   15.6910   29.4042 N   0  0  0  0  0  0  0  0  0  0  0  0
  -26.6308   15.8102   28.2096 C   0  0  0  0  0  0  0  0  0  0  0  0
  -27.4233   16.4833   27.9912 H   0  0  0  0  0  0  0  0  0  0  0  0
  -26.0803   15.0346   27.2697 N   0  0  0  0  0  0  0  0  0  0  0  0
  -25.1657   14.3698   27.9146 C   0  0  0  0  0  0  0  0  0  0  0  0
  -24.2911   13.4187   27.4172 N   0  0  0  0  0  0  0  0  0  0  0  0
  -23.4519   12.8737   28.2363 C   0  0  0  0  0  0  0  0  0  0  0  0
  -22.4907   11.8382   27.7207 C   0  0  0  0  0  0  0  0  0  0  0  0
  -21.8473   11.4563   28.5167 H   0  0  0  0  0  0  0  0  0  0  0  0
  -21.8649   12.2831   26.9418 H   0  0  0  0  0  0  0  0  0  0  0  0
  -23.0550   11.0049   27.2912 H   0  0  0  0  0  0  0  0  0  0  0  0
  -23.3959   13.2309   29.6783 C   0  0  0  0  0  0  0  0  0  0  0  0
  -22.6997   12.7508   30.3072 H   0  0  0  0  0  0  0  0  0  0  0  0
  1  2  1  0
  1  9  1  0
  1 16  1  0
  2  3  1  0
  2  4  1  0
  2  5  1  0
  5  6  1  0
  5  7  1  0
  5  8  1  0
  9 10  1  0
  9 11  1  0
  9 12  1  0
 12 13  1  0
 12 14  1  0
 12 15  1  0
 16 17  1  0
 16 29  2  0
 17 18  1  0
 17 22  1  0
 18 19  2  0
 19 20  1  0
 19 21  1  0
 21 22  2  0
 22 23  1  0
 23 24  2  0
 24 25  1  0
 24 29  1  0
 25 26  1  0
 25 27  1  0
 25 28  1  0
 29 30  1  0
M  END
$$$$
