F558_6
     RDKit          3D

 32 33  0  0  0  0  0  0  0  0999 V2000
  -18.0614   16.0761   26.9757 O   0  0  0  0  0  0  0  0  0  0  0  0
  -17.5287   15.2518   26.2475 C   0  0  0  0  0  0  0  0  0  0  0  0
  -16.3637   15.4348   25.5719 O   0  0  0  0  0  0  0  0  0  0  0  0
  -15.6434   16.6119   25.9445 C   0  0  0  0  0  0  0  0  0  0  0  0
  -15.3796   16.5796   27.0057 H   0  0  0  0  0  0  0  0  0  0  0  0
  -16.2328   17.5067   25.7180 H   0  0  0  0  0  0  0  0  0  0  0  0
  -14.7222   16.6448   25.3571 H   0  0  0  0  0  0  0  0  0  0  0  0
  -18.0229   14.0163   25.9613 N   0  0  0  0  0  0  0  0  0  0  0  0
  -17.4662   13.5026   25.2719 H   0  0  0  0  0  0  0  0  0  0  0  0
  -19.1752   13.3745   26.4649 C   0  0  0  0  0  0  0  0  0  0  0  0
  -20.1095   14.0124   27.2842 C   0  0  0  0  0  0  0  0  0  0  0  0
  -19.9781   15.0226   27.5687 H   0  0  0  0  0  0  0  0  0  0  0  0
  -21.2182   13.3048   27.7359 C   0  0  0  0  0  0  0  0  0  0  0  0
  -21.9261   13.7894   28.3590 H   0  0  0  0  0  0  0  0  0  0  0  0
  -21.4017   11.9667   27.3814 C   0  0  0  0  0  0  0  0  0  0  0  0
  -22.5987   11.1977   27.8939 C   0  0  0  0  0  0  0  0  0  0  0  0
  -22.2867   10.5539   28.7270 H   0  0  0  0  0  0  0  0  0  0  0  0
  -22.9518   10.4994   27.1235 H   0  0  0  0  0  0  0  0  0  0  0  0
  -23.7384   12.0836   28.3292 C   0  0  0  0  0  0  0  0  0  0  0  0
  -24.0728   12.2240   29.6709 C   0  0  0  0  0  0  0  0  0  0  0  0
  -23.5191   11.7219   30.4202 H   0  0  0  0  0  0  0  0  0  0  0  0
  -25.1456   13.0312   30.0357 C   0  0  0  0  0  0  0  0  0  0  0  0
  -25.4081   13.1428   31.0578 H   0  0  0  0  0  0  0  0  0  0  0  0
  -25.8736   13.6832   29.1318 N   0  0  0  0  0  0  0  0  0  0  0  0
  -25.5737   13.5618   27.8400 C   0  0  0  0  0  0  0  0  0  0  0  0
  -26.1712   14.0886   27.1388 H   0  0  0  0  0  0  0  0  0  0  0  0
  -24.5152   12.7710   27.4045 C   0  0  0  0  0  0  0  0  0  0  0  0
  -24.3095   12.6928   26.3680 H   0  0  0  0  0  0  0  0  0  0  0  0
  -20.4535   11.3365   26.5717 C   0  0  0  0  0  0  0  0  0  0  0  0
  -20.5782   10.3202   26.2988 H   0  0  0  0  0  0  0  0  0  0  0  0
  -19.3411   12.0349   26.1144 C   0  0  0  0  0  0  0  0  0  0  0  0
  -18.6278   11.5531   25.4971 H   0  0  0  0  0  0  0  0  0  0  0  0
  1  2  2  0
  2  3  1  0
  2  8  1  0
  3  4  1  0
  4  5  1  0
  4  6  1  0
  4  7  1  0
  8  9  1  0
  8 10  1  0
 10 11  1  0
 10 31  2  0
 11 12  1  0
 11 13  2  0
 13 14  1  0
 13 15  1  0
 15 16  1  0
 15 29  2  0
 16 17  1  0
 16 18  1  0
 16 19  1  0
 19 20  1  0
 19 27  2  0
 20 21  1  0
 20 22  2  0
 22 23  1  0
 22 24  1  0
 24 25  2  0
 25 26  1  0
 25 27  1  0
 27 28  1  0
 29 30  1  0
 29 31  1  0
 31 32  1  0
M  END
$$$$
