F666_13
     RDKit          3D

 35 37  0  0  0  0  0  0  0  0999 V2000
  -19.9948   11.0911   24.9746 F   0  0  0  0  0  0  0  0  0  0  0  0
  -19.4720   12.2962   25.2422 C   0  0  0  0  0  0  0  0  0  0  0  0
  -18.7545   12.9522   24.2498 C   0  0  0  0  0  0  0  0  0  0  0  0
  -18.6278   12.5013   23.3001 H   0  0  0  0  0  0  0  0  0  0  0  0
  -18.2100   14.2028   24.5264 C   0  0  0  0  0  0  0  0  0  0  0  0
  -17.6649   14.7036   23.7751 H   0  0  0  0  0  0  0  0  0  0  0  0
  -18.3816   14.7779   25.7984 C   0  0  0  0  0  0  0  0  0  0  0  0
  -17.8255   16.0181   26.0860 N   0  0  0  0  0  0  0  0  0  0  0  0
  -16.3829   16.2106   26.2975 C   0  0  0  0  0  0  0  0  0  0  0  0
  -15.8164   15.2740   26.2945 H   0  0  0  0  0  0  0  0  0  0  0  0
  -15.9957   16.8081   25.4628 H   0  0  0  0  0  0  0  0  0  0  0  0
  -16.1312   16.9619   27.6145 C   0  0  0  0  0  0  0  0  0  0  0  0
  -15.0638   17.1681   27.7228 H   0  0  0  0  0  0  0  0  0  0  0  0
  -16.4329   16.3392   28.4648 H   0  0  0  0  0  0  0  0  0  0  0  0
  -16.9305   18.1927   27.6820 N   0  0  0  0  0  0  0  0  0  0  0  0
  -16.4223   19.4480   27.9198 C   0  0  0  0  0  0  0  0  0  0  0  0
  -17.1898   20.3918   27.9643 O   0  0  0  0  0  0  0  0  0  0  0  0
  -14.9659   19.6212   28.1194 C   0  0  0  0  0  0  0  0  0  0  0  0
  -14.6392   19.4663   29.1432 H   0  0  0  0  0  0  0  0  0  0  0  0
  -14.2189   20.6939   27.3586 C   0  0  0  0  0  0  0  0  0  0  0  0
  -14.7729   21.3060   26.6556 H   0  0  0  0  0  0  0  0  0  0  0  0
  -13.4256   21.2205   27.8749 H   0  0  0  0  0  0  0  0  0  0  0  0
  -14.0020   19.2516   27.0158 C   0  0  0  0  0  0  0  0  0  0  0  0
  -14.4034   18.8946   26.0736 H   0  0  0  0  0  0  0  0  0  0  0  0
  -13.0587   18.7992   27.2973 H   0  0  0  0  0  0  0  0  0  0  0  0
  -18.3692   17.9839   27.4749 C   0  0  0  0  0  0  0  0  0  0  0  0
  -18.7279   17.3930   28.3255 H   0  0  0  0  0  0  0  0  0  0  0  0
  -18.9178   18.9310   27.4793 H   0  0  0  0  0  0  0  0  0  0  0  0
  -18.6502   17.2348   26.1605 C   0  0  0  0  0  0  0  0  0  0  0  0
  -18.4101   17.8767   25.3049 H   0  0  0  0  0  0  0  0  0  0  0  0
  -19.7233   17.0166   26.1243 H   0  0  0  0  0  0  0  0  0  0  0  0
  -19.1300   14.1016   26.7757 C   0  0  0  0  0  0  0  0  0  0  0  0
  -19.3019   14.5500   27.7182 H   0  0  0  0  0  0  0  0  0  0  0  0
  -19.6716   12.8498   26.4992 C   0  0  0  0  0  0  0  0  0  0  0  0
  -20.2350   12.3277   27.2271 H   0  0  0  0  0  0  0  0  0  0  0  0
  1  2  1  0
  2  3  1  0
  2 34  2  0
  3  4  1  0
  3  5  2  0
  5  6  1  0
  5  7  1  0
  7  8  1  0
  7 32  2  0
  8  9  1  0
  8 29  1  0
  9 10  1  0
  9 11  1  0
  9 12  1  0
 12 13  1  0
 12 14  1  0
 12 15  1  0
 15 16  1  0
 15 26  1  0
 16 17  2  0
 16 18  1  0
 18 19  1  0
 18 20  1  0
 18 23  1  0
 20 21  1  0
 20 22  1  0
 20 23  1  0
 23 24  1  0
 23 25  1  0
 26 27  1  0
 26 28  1  0
 26 29  1  0
 29 30  1  0
 29 31  1  0
 32 33  1  0
 32 34  1  0
 34 35  1  0
M  END
$$$$
