F421_37
     RDKit          3D

 19 19  0  0  0  0  0  0  0  0999 V2000
  -23.5011   11.2411   30.4937 O   0  0  0  0  0  0  0  0  0  0  0  0
  -23.8230   12.2932   29.9462 C   0  0  0  0  0  0  0  0  0  0  0  0
  -23.8329   13.4356   30.7443 N   0  0  0  0  0  0  0  0  0  0  0  0
  -23.7867   13.3082   32.1945 C   0  0  0  0  0  0  0  0  0  0  0  0
  -24.5754   13.9309   32.6289 H   0  0  0  0  0  0  0  0  0  0  0  0
  -22.8112   13.6580   32.5443 H   0  0  0  0  0  0  0  0  0  0  0  0
  -23.9363   12.2782   32.5272 H   0  0  0  0  0  0  0  0  0  0  0  0
  -23.8569   14.7999   30.2337 C   0  0  0  0  0  0  0  0  0  0  0  0
  -23.1703   15.4157   30.8238 H   0  0  0  0  0  0  0  0  0  0  0  0
  -24.8724   15.1934   30.3355 H   0  0  0  0  0  0  0  0  0  0  0  0
  -23.5377   14.8488   29.1907 H   0  0  0  0  0  0  0  0  0  0  0  0
  -24.1713   12.3589   28.5385 C   0  0  0  0  0  0  0  0  0  0  0  0
  -25.1594   13.1472   28.0287 C   0  0  0  0  0  0  0  0  0  0  0  0
  -25.8428   13.8040   28.5009 H   0  0  0  0  0  0  0  0  0  0  0  0
  -25.1373   12.9575   26.6987 N   0  0  0  0  0  0  0  0  0  0  0  0
  -25.7739   13.4193   26.0216 H   0  0  0  0  0  0  0  0  0  0  0  0
  -24.1665   12.0809   26.3228 N   0  0  0  0  0  0  0  0  0  0  0  0
  -23.5852   11.7336   27.4357 C   0  0  0  0  0  0  0  0  0  0  0  0
  -22.7638   11.0620   27.4719 H   0  0  0  0  0  0  0  0  0  0  0  0
  1  2  2  0
  2  3  1  0
  2 12  1  0
  3  4  1  0
  3  8  1  0
  4  5  1  0
  4  6  1  0
  4  7  1  0
  8  9  1  0
  8 10  1  0
  8 11  1  0
 12 13  2  0
 12 18  1  0
 13 14  1  0
 13 15  1  0
 15 16  1  0
 15 17  1  0
 17 18  2  0
 18 19  1  0
M  END
$$$$
