F199_94
     RDKit          3D

 25 26  0  0  0  0  0  0  0  0999 V2000
  -21.2187   11.9984   29.3573 O   0  0  0  0  0  0  0  0  0  0  0  0
  -21.9956   12.6506   28.6631 C   0  0  0  0  0  0  0  0  0  0  0  0
  -21.5357   13.2294   27.5053 N   0  0  0  0  0  0  0  0  0  0  0  0
  -22.2555   13.7549   26.9898 H   0  0  0  0  0  0  0  0  0  0  0  0
  -20.2543   13.1794   26.9865 C   0  0  0  0  0  0  0  0  0  0  0  0
  -19.9312   13.7788   25.8225 C   0  0  0  0  0  0  0  0  0  0  0  0
  -20.5017   14.3449   25.1355 H   0  0  0  0  0  0  0  0  0  0  0  0
  -18.6125   13.5138   25.6505 N   0  0  0  0  0  0  0  0  0  0  0  0
  -17.7629   13.9221   24.5618 C   0  0  0  0  0  0  0  0  0  0  0  0
  -18.3484   14.4915   23.8362 H   0  0  0  0  0  0  0  0  0  0  0  0
  -17.3520   13.0262   24.0894 H   0  0  0  0  0  0  0  0  0  0  0  0
  -16.9608   14.5452   24.9652 H   0  0  0  0  0  0  0  0  0  0  0  0
  -18.0980   12.7692   26.6653 N   0  0  0  0  0  0  0  0  0  0  0  0
  -19.1031   12.5669   27.4802 C   0  0  0  0  0  0  0  0  0  0  0  0
  -19.0270   12.0134   28.3802 H   0  0  0  0  0  0  0  0  0  0  0  0
  -23.3954   12.8680   28.9681 C   0  0  0  0  0  0  0  0  0  0  0  0
  -24.2053   13.4812   28.1415 N   0  0  0  0  0  0  0  0  0  0  0  0
  -25.4034   13.5153   28.7176 O   0  0  0  0  0  0  0  0  0  0  0  0
  -25.3650   12.9243   29.9161 C   0  0  0  0  0  0  0  0  0  0  0  0
  -26.6193   12.8807   30.6839 C   0  0  0  0  0  0  0  0  0  0  0  0
  -26.4734   12.3848   31.6483 H   0  0  0  0  0  0  0  0  0  0  0  0
  -27.3877   12.3316   30.1314 H   0  0  0  0  0  0  0  0  0  0  0  0
  -26.9891   13.8925   30.8742 H   0  0  0  0  0  0  0  0  0  0  0  0
  -24.1090   12.5025   30.1110 C   0  0  0  0  0  0  0  0  0  0  0  0
  -23.7308   11.9929   30.9589 H   0  0  0  0  0  0  0  0  0  0  0  0
  1  2  2  0
  2  3  1  0
  2 16  1  0
  3  4  1  0
  3  5  1  0
  5  6  2  0
  5 14  1  0
  6  7  1  0
  6  8  1  0
  8  9  1  0
  8 13  1  0
  9 10  1  0
  9 11  1  0
  9 12  1  0
 13 14  2  0
 14 15  1  0
 16 17  2  0
 16 24  1  0
 17 18  1  0
 18 19  1  0
 19 20  1  0
 19 24  2  0
 20 21  1  0
 20 22  1  0
 20 23  1  0
 24 25  1  0
M  END
$$$$
