F274_79
     RDKit          3D

 26 27  0  0  0  0  0  0  0  0999 V2000
  -22.8869   12.3480   30.8034 O   0  0  0  0  0  0  0  0  0  0  0  0
  -23.5913   13.2176   30.2749 C   0  0  0  0  0  0  0  0  0  0  0  0
  -23.8108   13.1842   28.8912 N   0  0  0  0  0  0  0  0  0  0  0  0
  -23.2427   12.1193   28.0687 C   0  0  0  0  0  0  0  0  0  0  0  0
  -23.4336   11.1586   28.5616 H   0  0  0  0  0  0  0  0  0  0  0  0
  -23.7458   12.0943   27.0958 H   0  0  0  0  0  0  0  0  0  0  0  0
  -21.7878   12.3317   27.9025 C   0  0  0  0  0  0  0  0  0  0  0  0
  -21.0243   12.2374   28.9935 O   0  0  0  0  0  0  0  0  0  0  0  0
  -19.7423   12.4668   28.6807 N   0  0  0  0  0  0  0  0  0  0  0  0
  -19.6957   12.7018   27.4149 C   0  0  0  0  0  0  0  0  0  0  0  0
  -18.4159   12.9917   26.7361 C   0  0  0  0  0  0  0  0  0  0  0  0
  -18.5843   13.3601   25.7187 H   0  0  0  0  0  0  0  0  0  0  0  0
  -17.8041   12.0856   26.6700 H   0  0  0  0  0  0  0  0  0  0  0  0
  -17.8480   13.7540   27.2793 H   0  0  0  0  0  0  0  0  0  0  0  0
  -20.9734   12.6306   26.8789 C   0  0  0  0  0  0  0  0  0  0  0  0
  -21.2563   12.7826   25.8696 H   0  0  0  0  0  0  0  0  0  0  0  0
  -24.5671   14.1283   28.2269 N   0  0  0  0  0  0  0  0  0  0  0  0
  -25.1156   15.1020   28.8843 C   0  0  0  0  0  0  0  0  0  0  0  0
  -25.9326   16.1199   28.1400 C   0  0  0  0  0  0  0  0  0  0  0  0
  -26.7264   15.6105   27.5843 H   0  0  0  0  0  0  0  0  0  0  0  0
  -25.2879   16.6510   27.4327 H   0  0  0  0  0  0  0  0  0  0  0  0
  -26.3867   16.8456   28.8191 H   0  0  0  0  0  0  0  0  0  0  0  0
  -24.9526   15.2155   30.2956 C   0  0  0  0  0  0  0  0  0  0  0  0
  -25.4163   16.0205   30.8050 H   0  0  0  0  0  0  0  0  0  0  0  0
  -24.2105   14.2956   30.9767 C   0  0  0  0  0  0  0  0  0  0  0  0
  -24.0705   14.3517   32.0238 H   0  0  0  0  0  0  0  0  0  0  0  0
  1  2  2  0
  2  3  1  0
  2 25  1  0
  3  4  1  0
  3 17  1  0
  4  5  1  0
  4  6  1  0
  4  7  1  0
  7  8  1  0
  7 15  2  0
  8  9  1  0
  9 10  2  0
 10 11  1  0
 10 15  1  0
 11 12  1  0
 11 13  1  0
 11 14  1  0
 15 16  1  0
 17 18  2  0
 18 19  1  0
 18 23  1  0
 19 20  1  0
 19 21  1  0
 19 22  1  0
 23 24  1  0
 23 25  2  0
 25 26  1  0
M  END
$$$$
