F309_35
     RDKit          3D

 14 14  0  0  0  0  0  0  0  0999 V2000
  -25.4660   13.3566   26.0489 O   0  0  0  0  0  0  0  0  0  0  0  0
  -24.6984   12.6794   26.7875 C   0  0  0  0  0  0  0  0  0  0  0  0
  -24.0264   11.7289   26.2884 O   0  0  0  0  0  0  0  0  0  0  0  0
  -24.5867   12.9936   28.2062 C   0  0  0  0  0  0  0  0  0  0  0  0
  -25.2057   14.0271   28.8896 C   0  0  0  0  0  0  0  0  0  0  0  0
  -26.1291   15.0342   28.2685 C   0  0  0  0  0  0  0  0  0  0  0  0
  -26.4883   15.7533   29.0119 H   0  0  0  0  0  0  0  0  0  0  0  0
  -27.0065   14.5409   27.8385 H   0  0  0  0  0  0  0  0  0  0  0  0
  -25.6121   15.6019   27.4876 H   0  0  0  0  0  0  0  0  0  0  0  0
  -24.8873   14.0520   30.2570 C   0  0  0  0  0  0  0  0  0  0  0  0
  -25.2694   14.7699   30.9353 H   0  0  0  0  0  0  0  0  0  0  0  0
  -24.0333   13.0541   30.6267 C   0  0  0  0  0  0  0  0  0  0  0  0
  -23.6466   12.8614   31.5937 H   0  0  0  0  0  0  0  0  0  0  0  0
  -23.6002   12.0565   29.2928 S   0  0  0  0  0  0  0  0  0  0  0  0
  1  2  1  0
  2  3  2  0
  2  4  1  0
  4  5  2  0
  4 14  1  0
  5  6  1  0
  5 10  1  0
  6  7  1  0
  6  8  1  0
  6  9  1  0
 10 11  1  0
 10 12  2  0
 12 13  1  0
 12 14  1  0
M  END
$$$$
