F600_32
     RDKit          3D

 16 16  0  0  0  0  0  0  0  0999 V2000
  -21.6955   12.1269   27.1206 O   0  0  0  0  0  0  0  0  0  0  0  0
  -20.7087   13.0137   27.6477 C   0  0  0  0  0  0  0  0  0  0  0  0
  -21.2005   13.8786   28.1097 H   0  0  0  0  0  0  0  0  0  0  0  0
  -20.1090   12.5006   28.4081 H   0  0  0  0  0  0  0  0  0  0  0  0
  -19.8527   13.4637   26.5132 C   0  0  0  0  0  0  0  0  0  0  0  0
  -19.0475   12.3304   25.5124 S   0  0  0  0  0  0  0  0  0  0  0  0
  -18.4211   13.6715   24.6743 C   0  0  0  0  0  0  0  0  0  0  0  0
  -17.6021   13.4925   23.6242 N   0  0  0  0  0  0  0  0  0  0  0  0
  -17.3348   12.5724   23.2975 H   0  0  0  0  0  0  0  0  0  0  0  0
  -17.2289   14.2914   23.1257 H   0  0  0  0  0  0  0  0  0  0  0  0
  -18.7821   14.8348   25.1178 N   0  0  0  0  0  0  0  0  0  0  0  0
  -19.6256   14.7042   26.2014 N   0  0  0  0  0  0  0  0  0  0  0  0
  -22.6391   11.7457   28.1118 C   0  0  0  0  0  0  0  0  0  0  0  0
  -23.3662   11.0698   27.6531 H   0  0  0  0  0  0  0  0  0  0  0  0
  -23.1701   12.6229   28.4931 H   0  0  0  0  0  0  0  0  0  0  0  0
  -22.1417   11.2189   28.9318 H   0  0  0  0  0  0  0  0  0  0  0  0
  1  2  1  0
  1 13  1  0
  2  3  1  0
  2  4  1  0
  2  5  1  0
  5  6  1  0
  5 12  2  0
  6  7  1  0
  7  8  1  0
  7 11  2  0
  8  9  1  0
  8 10  1  0
 11 12  1  0
 13 14  1  0
 13 15  1  0
 13 16  1  0
M  END
$$$$
