F467_70
     RDKit          3D

 24 24  0  0  0  0  0  0  0  0999 V2000
  -24.6976   17.3019   30.7298 O   0  0  0  0  0  0  0  0  0  0  0  0
  -24.5583   17.4204   31.6863 H   0  0  0  0  0  0  0  0  0  0  0  0
  -25.2139   15.9895   30.5423 C   0  0  0  0  0  0  0  0  0  0  0  0
  -26.1721   15.9134   31.0653 H   0  0  0  0  0  0  0  0  0  0  0  0
  -25.3877   15.8512   29.4707 H   0  0  0  0  0  0  0  0  0  0  0  0
  -24.2195   14.9323   31.0397 C   0  0  0  0  0  0  0  0  0  0  0  0
  -24.0376   15.0396   32.1155 H   0  0  0  0  0  0  0  0  0  0  0  0
  -23.2494   15.1198   30.5624 H   0  0  0  0  0  0  0  0  0  0  0  0
  -24.6523   13.5598   30.6957 N   0  0  0  0  0  0  0  0  0  0  0  0
  -25.7840   13.0501   31.4696 C   0  0  0  0  0  0  0  0  0  0  0  0
  -26.0438   13.7175   32.3000 H   0  0  0  0  0  0  0  0  0  0  0  0
  -25.5465   12.0750   31.9088 H   0  0  0  0  0  0  0  0  0  0  0  0
  -26.6724   12.9581   30.8353 H   0  0  0  0  0  0  0  0  0  0  0  0
  -23.9915   12.8557   29.7187 C   0  0  0  0  0  0  0  0  0  0  0  0
  -23.6221   11.6158   30.0722 N   0  0  0  0  0  0  0  0  0  0  0  0
  -23.8563   11.3343   31.0306 H   0  0  0  0  0  0  0  0  0  0  0  0
  -22.9725   10.7607   29.2271 C   0  0  0  0  0  0  0  0  0  0  0  0
  -22.7376    9.8054   29.6280 H   0  0  0  0  0  0  0  0  0  0  0  0
  -22.6727   11.1748   27.9504 C   0  0  0  0  0  0  0  0  0  0  0  0
  -22.1698   10.5277   27.2769 H   0  0  0  0  0  0  0  0  0  0  0  0
  -23.0297   12.4693   27.5337 C   0  0  0  0  0  0  0  0  0  0  0  0
  -22.7912   12.7978   26.5506 H   0  0  0  0  0  0  0  0  0  0  0  0
  -23.6804   13.3064   28.4087 C   0  0  0  0  0  0  0  0  0  0  0  0
  -23.9377   14.2882   28.1127 H   0  0  0  0  0  0  0  0  0  0  0  0
  1  2  1  0
  1  3  1  0
  3  4  1  0
  3  5  1  0
  3  6  1  0
  6  7  1  0
  6  8  1  0
  6  9  1  0
  9 10  1  0
  9 14  1  0
 10 11  1  0
 10 12  1  0
 10 13  1  0
 14 15  1  0
 14 23  2  0
 15 16  1  0
 15 17  2  0
 17 18  1  0
 17 19  1  0
 19 20  1  0
 19 21  2  0
 21 22  1  0
 21 23  1  0
 23 24  1  0
M  END
$$$$
