F366_7
     RDKit          3D

 22 22  0  0  0  0  0  0  0  0999 V2000
  -20.2544   12.1511   27.9876 O   0  0  0  0  0  0  0  0  0  0  0  0
  -19.4446   12.5902   27.6744 H   0  0  0  0  0  0  0  0  0  0  0  0
  -21.3435   13.0153   27.6758 C   0  0  0  0  0  0  0  0  0  0  0  0
  -21.1614   13.9934   28.1342 H   0  0  0  0  0  0  0  0  0  0  0  0
  -21.3698   13.1340   26.5879 H   0  0  0  0  0  0  0  0  0  0  0  0
  -22.6555   12.4016   28.1606 C   0  0  0  0  0  0  0  0  0  0  0  0
  -22.8073   11.4430   27.6494 H   0  0  0  0  0  0  0  0  0  0  0  0
  -22.5967   12.1926   29.2366 H   0  0  0  0  0  0  0  0  0  0  0  0
  -23.8387   13.2812   27.9047 C   0  0  0  0  0  0  0  0  0  0  0  0
  -24.2643   14.3189   28.6597 C   0  0  0  0  0  0  0  0  0  0  0  0
  -23.8924   14.7322   29.5601 H   0  0  0  0  0  0  0  0  0  0  0  0
  -25.3573   14.8094   28.0351 N   0  0  0  0  0  0  0  0  0  0  0  0
  -26.1837   15.9279   28.4344 C   0  0  0  0  0  0  0  0  0  0  0  0
  -27.1596   15.8115   27.9512 H   0  0  0  0  0  0  0  0  0  0  0  0
  -26.3340   15.8606   29.5173 H   0  0  0  0  0  0  0  0  0  0  0  0
  -25.5632   17.2614   28.0576 C   0  0  0  0  0  0  0  0  0  0  0  0
  -25.4131   17.3345   26.9741 H   0  0  0  0  0  0  0  0  0  0  0  0
  -24.5884   17.3951   28.5384 H   0  0  0  0  0  0  0  0  0  0  0  0
  -26.2138   18.0847   28.3684 H   0  0  0  0  0  0  0  0  0  0  0  0
  -25.6472   14.1155   26.9064 N   0  0  0  0  0  0  0  0  0  0  0  0
  -24.7236   13.1956   26.8333 C   0  0  0  0  0  0  0  0  0  0  0  0
  -24.6717   12.4783   26.0512 H   0  0  0  0  0  0  0  0  0  0  0  0
  1  2  1  0
  1  3  1  0
  3  4  1  0
  3  5  1  0
  3  6  1  0
  6  7  1  0
  6  8  1  0
  6  9  1  0
  9 10  2  0
  9 21  1  0
 10 11  1  0
 10 12  1  0
 12 13  1  0
 12 20  1  0
 13 14  1  0
 13 15  1  0
 13 16  1  0
 16 17  1  0
 16 18  1  0
 16 19  1  0
 20 21  2  0
 21 22  1  0
M  END
$$$$
