F603_59
     RDKit          3D

 24 25  0  0  0  0  0  0  0  0999 V2000
  -19.0464   13.0346   25.6312 S   0  0  0  0  0  0  0  0  0  0  0  0
  -20.1324   13.0420   24.6712 O   0  0  0  0  0  0  0  0  0  0  0  0
  -17.6833   12.7558   25.2099 O   0  0  0  0  0  0  0  0  0  0  0  0
  -19.4477   11.9017   26.9516 C   0  0  0  0  0  0  0  0  0  0  0  0
  -19.4608   10.8911   26.5340 H   0  0  0  0  0  0  0  0  0  0  0  0
  -18.6622   11.9795   27.7083 H   0  0  0  0  0  0  0  0  0  0  0  0
  -20.7799   12.2437   27.5205 C   0  0  0  0  0  0  0  0  0  0  0  0
  -21.8669   12.5407   26.7439 N   0  0  0  0  0  0  0  0  0  0  0  0
  -21.8874   12.5981   25.7158 H   0  0  0  0  0  0  0  0  0  0  0  0
  -22.9251   12.7535   27.5641 C   0  0  0  0  0  0  0  0  0  0  0  0
  -22.4258   12.5700   28.8369 C   0  0  0  0  0  0  0  0  0  0  0  0
  -21.0853   12.2526   28.7756 N   0  0  0  0  0  0  0  0  0  0  0  0
  -23.2852   12.7199   29.9333 C   0  0  0  0  0  0  0  0  0  0  0  0
  -22.9086   12.5823   30.9128 H   0  0  0  0  0  0  0  0  0  0  0  0
  -24.6162   13.0499   29.7112 C   0  0  0  0  0  0  0  0  0  0  0  0
  -25.2749   13.1667   30.5328 H   0  0  0  0  0  0  0  0  0  0  0  0
  -25.1042   13.2320   28.3962 C   0  0  0  0  0  0  0  0  0  0  0  0
  -26.1246   13.4830   28.2489 H   0  0  0  0  0  0  0  0  0  0  0  0
  -24.2619   13.0857   27.3057 C   0  0  0  0  0  0  0  0  0  0  0  0
  -24.6138   13.2202   26.3154 H   0  0  0  0  0  0  0  0  0  0  0  0
  -19.0445   14.6088   26.4508 C   0  0  0  0  0  0  0  0  0  0  0  0
  -20.0376   14.7912   26.8649 H   0  0  0  0  0  0  0  0  0  0  0  0
  -18.7987   15.3765   25.7143 H   0  0  0  0  0  0  0  0  0  0  0  0
  -18.2912   14.5951   27.2415 H   0  0  0  0  0  0  0  0  0  0  0  0
  1  2  2  0
  1  3  2  0
  1  4  1  0
  1 21  1  0
  4  5  1  0
  4  6  1  0
  4  7  1  0
  7  8  1  0
  7 12  2  0
  8  9  1  0
  8 10  1  0
 10 11  1  0
 10 19  2  0
 11 12  1  0
 11 13  2  0
 13 14  1  0
 13 15  1  0
 15 16  1  0
 15 17  2  0
 17 18  1  0
 17 19  1  0
 19 20  1  0
 21 22  1  0
 21 23  1  0
 21 24  1  0
M  END
$$$$
