F5_22
     RDKit          3D

 21 21  0  0  0  0  0  0  0  0999 V2000
  -22.0970   10.4712   32.3447 Br  0  0  0  0  0  0  0  0  0  0  0  0
  -22.8895   11.4934   30.9635 C   0  0  0  0  0  0  0  0  0  0  0  0
  -23.3344   12.7858   31.2200 C   0  0  0  0  0  0  0  0  0  0  0  0
  -23.2379   13.2085   32.1836 H   0  0  0  0  0  0  0  0  0  0  0  0
  -23.9187   13.5257   30.1963 C   0  0  0  0  0  0  0  0  0  0  0  0
  -24.3594   14.7858   30.5066 O   0  0  0  0  0  0  0  0  0  0  0  0
  -25.5052   14.8827   31.3868 C   0  0  0  0  0  0  0  0  0  0  0  0
  -25.8455   15.9169   31.3874 H   0  0  0  0  0  0  0  0  0  0  0  0
  -25.1957   14.5735   32.3840 H   0  0  0  0  0  0  0  0  0  0  0  0
  -26.2929   14.2264   31.0179 H   0  0  0  0  0  0  0  0  0  0  0  0
  -24.0545   13.0030   28.9027 C   0  0  0  0  0  0  0  0  0  0  0  0
  -24.6547   13.8011   27.7448 C   0  0  0  0  0  0  0  0  0  0  0  0
  -24.4853   13.2641   26.8244 H   0  0  0  0  0  0  0  0  0  0  0  0
  -24.2590   14.8024   27.7111 H   0  0  0  0  0  0  0  0  0  0  0  0
  -26.1507   13.9003   27.9410 C   0  0  0  0  0  0  0  0  0  0  0  0
  -26.6765   13.1206   28.7673 O   0  0  0  0  0  0  0  0  0  0  0  0
  -26.7809   14.7165   27.2323 O   0  0  0  0  0  0  0  0  0  0  0  0
  -23.6095   11.7033   28.6666 C   0  0  0  0  0  0  0  0  0  0  0  0
  -23.7232   11.2827   27.6977 H   0  0  0  0  0  0  0  0  0  0  0  0
  -23.0314   10.9518   29.6868 C   0  0  0  0  0  0  0  0  0  0  0  0
  -22.7027    9.9647   29.4906 H   0  0  0  0  0  0  0  0  0  0  0  0
  1  2  1  0
  2  3  1  0
  2 20  2  0
  3  4  1  0
  3  5  2  0
  5  6  1  0
  5 11  1  0
  6  7  1  0
  7  8  1  0
  7  9  1  0
  7 10  1  0
 11 12  1  0
 11 18  2  0
 12 13  1  0
 12 14  1  0
 12 15  1  0
 15 16  1  0
 15 17  2  0
 18 19  1  0
 18 20  1  0
 20 21  1  0
M  END
$$$$
