F229_88
     RDKit          3D

 27 28  0  0  0  0  0  0  0  0999 V2000
  -22.8847   15.0613   29.4002 F   0  0  0  0  0  0  0  0  0  0  0  0
  -22.9656   13.7235   29.4813 C   0  0  0  0  0  0  0  0  0  0  0  0
  -22.2850   12.9002   28.5620 C   0  0  0  0  0  0  0  0  0  0  0  0
  -21.4932   13.3873   27.5298 N   0  0  0  0  0  0  0  0  0  0  0  0
  -21.9363   13.9000   26.7765 H   0  0  0  0  0  0  0  0  0  0  0  0
  -20.0522   13.2226   27.4503 C   0  0  0  0  0  0  0  0  0  0  0  0
  -19.6080   13.4340   28.4308 H   0  0  0  0  0  0  0  0  0  0  0  0
  -19.8134   12.1810   27.2045 H   0  0  0  0  0  0  0  0  0  0  0  0
  -19.3918   14.1034   26.4340 C   0  0  0  0  0  0  0  0  0  0  0  0
  -19.1998   13.8241   25.0825 C   0  0  0  0  0  0  0  0  0  0  0  0
  -19.5851   12.6082   24.3265 C   0  0  0  0  0  0  0  0  0  0  0  0
  -20.6467   12.3838   24.4745 H   0  0  0  0  0  0  0  0  0  0  0  0
  -19.0006   11.7471   24.6672 H   0  0  0  0  0  0  0  0  0  0  0  0
  -19.4153   12.7282   23.2514 H   0  0  0  0  0  0  0  0  0  0  0  0
  -18.5994   14.8132   24.4828 N   0  0  0  0  0  0  0  0  0  0  0  0
  -18.4031   15.7438   25.4487 N   0  0  0  0  0  0  0  0  0  0  0  0
  -17.9405   16.6539   25.2658 H   0  0  0  0  0  0  0  0  0  0  0  0
  -18.8788   15.3381   26.6436 C   0  0  0  0  0  0  0  0  0  0  0  0
  -18.8171   15.9379   27.5133 H   0  0  0  0  0  0  0  0  0  0  0  0
  -22.3962   11.5153   28.6983 C   0  0  0  0  0  0  0  0  0  0  0  0
  -21.8818   10.8778   28.0283 H   0  0  0  0  0  0  0  0  0  0  0  0
  -23.1818   10.9743   29.7147 C   0  0  0  0  0  0  0  0  0  0  0  0
  -23.2654    9.9214   29.8116 H   0  0  0  0  0  0  0  0  0  0  0  0
  -23.8600   11.8038   30.6108 C   0  0  0  0  0  0  0  0  0  0  0  0
  -24.4544   11.3804   31.3801 H   0  0  0  0  0  0  0  0  0  0  0  0
  -23.7490   13.1878   30.4938 C   0  0  0  0  0  0  0  0  0  0  0  0
  -24.2533   13.8285   31.1714 H   0  0  0  0  0  0  0  0  0  0  0  0
  1  2  1  0
  2  3  1  0
  2 26  2  0
  3  4  1  0
  3 20  2  0
  4  5  1  0
  4  6  1  0
  6  7  1  0
  6  8  1  0
  6  9  1  0
  9 10  1  0
  9 18  2  0
 10 11  1  0
 10 15  2  0
 11 12  1  0
 11 13  1  0
 11 14  1  0
 15 16  1  0
 16 17  1  0
 16 18  1  0
 18 19  1  0
 20 21  1  0
 20 22  1  0
 22 23  1  0
 22 24  2  0
 24 25  1  0
 24 26  1  0
 26 27  1  0
M  END
$$$$
