F11_64
     RDKit          3D

 16 17  0  0  0  0  0  0  0  0999 V2000
  -25.5786   14.2305   28.0641 Br  0  0  0  0  0  0  0  0  0  0  0  0
  -24.3866   12.8318   28.5278 C   0  0  0  0  0  0  0  0  0  0  0  0
  -23.8505   12.6672   29.8342 C   0  0  0  0  0  0  0  0  0  0  0  0
  -22.9700   11.5794   30.0483 C   0  0  0  0  0  0  0  0  0  0  0  0
  -22.6422   10.7145   29.0454 N   0  0  0  0  0  0  0  0  0  0  0  0
  -23.1419   10.8792   27.8545 C   0  0  0  0  0  0  0  0  0  0  0  0
  -22.8691   10.1894   27.0934 H   0  0  0  0  0  0  0  0  0  0  0  0
  -24.0241   11.9348   27.5546 C   0  0  0  0  0  0  0  0  0  0  0  0
  -24.4038   12.0257   26.5693 H   0  0  0  0  0  0  0  0  0  0  0  0
  -22.4081   11.3443   31.2691 N   0  0  0  0  0  0  0  0  0  0  0  0
  -22.6788   12.1316   32.2728 C   0  0  0  0  0  0  0  0  0  0  0  0
  -22.2264   11.9240   33.2114 H   0  0  0  0  0  0  0  0  0  0  0  0
  -23.5459   13.2375   32.1444 C   0  0  0  0  0  0  0  0  0  0  0  0
  -23.7341   13.8467   32.9908 H   0  0  0  0  0  0  0  0  0  0  0  0
  -24.1346   13.5140   30.9369 C   0  0  0  0  0  0  0  0  0  0  0  0
  -24.7857   14.3438   30.8380 H   0  0  0  0  0  0  0  0  0  0  0  0
  1  2  1  0
  2  3  1  0
  2  8  2  0
  3  4  1  0
  3 15  2  0
  4  5  1  0
  4 10  2  0
  5  6  2  0
  6  7  1  0
  6  8  1  0
  8  9  1  0
 10 11  1  0
 11 12  1  0
 11 13  2  0
 13 14  1  0
 13 15  1  0
 15 16  1  0
M  END
$$$$
