F687_30
     RDKit          3D

 24 25  0  0  0  0  0  0  0  0999 V2000
  -21.4093   11.9700   29.8051 F   0  0  0  0  0  0  0  0  0  0  0  0
  -22.5775   12.2983   29.2319 C   0  0  0  0  0  0  0  0  0  0  0  0
  -22.6465   12.5902   27.8549 C   0  0  0  0  0  0  0  0  0  0  0  0
  -21.5526   12.5617   27.0087 N   0  0  0  0  0  0  0  0  0  0  0  0
  -21.6478   12.2505   26.0467 H   0  0  0  0  0  0  0  0  0  0  0  0
  -20.1956   12.9490   27.3665 C   0  0  0  0  0  0  0  0  0  0  0  0
  -20.2334   13.7169   28.1495 H   0  0  0  0  0  0  0  0  0  0  0  0
  -19.6657   12.0780   27.7701 H   0  0  0  0  0  0  0  0  0  0  0  0
  -19.3703   13.4972   26.2347 C   0  0  0  0  0  0  0  0  0  0  0  0
  -18.7557   14.6513   26.3333 N   0  0  0  0  0  0  0  0  0  0  0  0
  -18.1233   14.8161   25.1410 N   0  0  0  0  0  0  0  0  0  0  0  0
  -17.5482   15.6496   24.9193 H   0  0  0  0  0  0  0  0  0  0  0  0
  -18.3365   13.7765   24.3080 C   0  0  0  0  0  0  0  0  0  0  0  0
  -17.9199   13.7274   23.3350 H   0  0  0  0  0  0  0  0  0  0  0  0
  -19.1290   12.9221   24.9907 C   0  0  0  0  0  0  0  0  0  0  0  0
  -19.4940   11.9867   24.6488 H   0  0  0  0  0  0  0  0  0  0  0  0
  -23.8851   12.9366   27.3095 C   0  0  0  0  0  0  0  0  0  0  0  0
  -23.9597   13.1745   26.2804 H   0  0  0  0  0  0  0  0  0  0  0  0
  -25.0205   12.9718   28.1192 C   0  0  0  0  0  0  0  0  0  0  0  0
  -25.9573   13.2321   27.6977 H   0  0  0  0  0  0  0  0  0  0  0  0
  -24.9357   12.6666   29.4793 C   0  0  0  0  0  0  0  0  0  0  0  0
  -25.8058   12.6954   30.0842 H   0  0  0  0  0  0  0  0  0  0  0  0
  -23.7048   12.3291   30.0394 C   0  0  0  0  0  0  0  0  0  0  0  0
  -23.6256   12.1028   31.0710 H   0  0  0  0  0  0  0  0  0  0  0  0
  1  2  1  0
  2  3  1  0
  2 23  2  0
  3  4  1  0
  3 17  2  0
  4  5  1  0
  4  6  1  0
  6  7  1  0
  6  8  1  0
  6  9  1  0
  9 10  2  0
  9 15  1  0
 10 11  1  0
 11 12  1  0
 11 13  1  0
 13 14  1  0
 13 15  2  0
 15 16  1  0
 17 18  1  0
 17 19  1  0
 19 20  1  0
 19 21  2  0
 21 22  1  0
 21 23  1  0
 23 24  1  0
M  END
$$$$
