F369_11
     RDKit          3D

 32 33  0  0  0  0  0  0  0  0999 V2000
  -20.9558   14.3222   28.0969 O   0  0  0  0  0  0  0  0  0  0  0  0
  -20.8580   13.3186   27.4185 C   0  0  0  0  0  0  0  0  0  0  0  0
  -21.9421   12.5183   27.1939 N   0  0  0  0  0  0  0  0  0  0  0  0
  -21.7416   11.6987   26.6123 H   0  0  0  0  0  0  0  0  0  0  0  0
  -23.2408   12.6797   27.6523 C   0  0  0  0  0  0  0  0  0  0  0  0
  -23.7371   13.7010   28.3805 C   0  0  0  0  0  0  0  0  0  0  0  0
  -23.2884   14.5828   28.7558 H   0  0  0  0  0  0  0  0  0  0  0  0
  -25.0415   13.3903   28.5728 N   0  0  0  0  0  0  0  0  0  0  0  0
  -26.0343   14.1510   29.3017 C   0  0  0  0  0  0  0  0  0  0  0  0
  -26.9105   13.5077   29.4362 H   0  0  0  0  0  0  0  0  0  0  0  0
  -25.6239   14.3735   30.2929 H   0  0  0  0  0  0  0  0  0  0  0  0
  -26.4129   15.4364   28.5877 C   0  0  0  0  0  0  0  0  0  0  0  0
  -26.8382   15.2299   27.5999 H   0  0  0  0  0  0  0  0  0  0  0  0
  -25.5387   16.0813   28.4459 H   0  0  0  0  0  0  0  0  0  0  0  0
  -27.1552   15.9903   29.1699 H   0  0  0  0  0  0  0  0  0  0  0  0
  -25.3831   12.2068   27.9836 N   0  0  0  0  0  0  0  0  0  0  0  0
  -24.2788   11.7802   27.4268 C   0  0  0  0  0  0  0  0  0  0  0  0
  -24.2099   10.8738   26.8835 H   0  0  0  0  0  0  0  0  0  0  0  0
  -19.5411   12.8791   26.7961 C   0  0  0  0  0  0  0  0  0  0  0  0
  -19.1443   12.0741   27.4275 H   0  0  0  0  0  0  0  0  0  0  0  0
  -19.7106   12.3678   25.3594 C   0  0  0  0  0  0  0  0  0  0  0  0
  -19.7154   11.2732   25.3215 H   0  0  0  0  0  0  0  0  0  0  0  0
  -20.6489   12.7075   24.9078 H   0  0  0  0  0  0  0  0  0  0  0  0
  -18.5254   12.9367   24.5922 C   0  0  0  0  0  0  0  0  0  0  0  0
  -17.6458   12.2964   24.7276 H   0  0  0  0  0  0  0  0  0  0  0  0
  -18.7253   13.0200   23.5203 H   0  0  0  0  0  0  0  0  0  0  0  0
  -18.2950   14.2878   25.2454 C   0  0  0  0  0  0  0  0  0  0  0  0
  -19.0342   15.0132   24.8885 H   0  0  0  0  0  0  0  0  0  0  0  0
  -17.2989   14.6866   25.0347 H   0  0  0  0  0  0  0  0  0  0  0  0
  -18.4999   14.0064   26.7289 C   0  0  0  0  0  0  0  0  0  0  0  0
  -18.7855   14.9097   27.2770 H   0  0  0  0  0  0  0  0  0  0  0  0
  -17.5559   13.6497   27.1611 H   0  0  0  0  0  0  0  0  0  0  0  0
  1  2  2  0
  2  3  1  0
  2 19  1  0
  3  4  1  0
  3  5  1  0
  5  6  2  0
  5 17  1  0
  6  7  1  0
  6  8  1  0
  8  9  1  0
  8 16  1  0
  9 10  1  0
  9 11  1  0
  9 12  1  0
 12 13  1  0
 12 14  1  0
 12 15  1  0
 16 17  2  0
 17 18  1  0
 19 20  1  0
 19 21  1  0
 19 30  1  0
 21 22  1  0
 21 23  1  0
 21 24  1  0
 24 25  1  0
 24 26  1  0
 24 27  1  0
 27 28  1  0
 27 29  1  0
 27 30  1  0
 30 31  1  0
 30 32  1  0
M  END
$$$$
