F709_43
     RDKit          3D

 29 30  0  0  0  0  0  0  0  0999 V2000
  -15.8225   15.3078   25.7406 O   0  0  0  0  0  0  0  0  0  0  0  0
  -16.9742   15.6368   25.9730 C   0  0  0  0  0  0  0  0  0  0  0  0
  -17.2467   16.9034   26.2938 N   0  0  0  0  0  0  0  0  0  0  0  0
  -16.9451   17.1775   27.2353 H   0  0  0  0  0  0  0  0  0  0  0  0
  -17.1759   17.5879   25.5370 H   0  0  0  0  0  0  0  0  0  0  0  0
  -18.0409   14.7789   25.9136 N   0  0  0  0  0  0  0  0  0  0  0  0
  -17.8467   13.4425   25.3439 C   0  0  0  0  0  0  0  0  0  0  0  0
  -16.8040   13.2778   25.0531 H   0  0  0  0  0  0  0  0  0  0  0  0
  -18.4536   13.3933   24.4316 H   0  0  0  0  0  0  0  0  0  0  0  0
  -18.2884   12.3585   26.3269 C   0  0  0  0  0  0  0  0  0  0  0  0
  -17.6514   12.3814   27.2193 H   0  0  0  0  0  0  0  0  0  0  0  0
  -18.1698   11.3720   25.8703 H   0  0  0  0  0  0  0  0  0  0  0  0
  -19.6654   12.5835   26.7923 N   0  0  0  0  0  0  0  0  0  0  0  0
  -20.6072   11.5623   26.7138 C   0  0  0  0  0  0  0  0  0  0  0  0
  -20.3234   10.6107   25.9858 O   0  0  0  0  0  0  0  0  0  0  0  0
  -21.8527   11.6255   27.4459 C   0  0  0  0  0  0  0  0  0  0  0  0
  -23.0516   11.5191   26.7977 O   0  0  0  0  0  0  0  0  0  0  0  0
  -24.0365   11.6687   27.7107 C   0  0  0  0  0  0  0  0  0  0  0  0
  -25.0529   11.6084   27.4159 H   0  0  0  0  0  0  0  0  0  0  0  0
  -23.4951   11.8875   28.9312 C   0  0  0  0  0  0  0  0  0  0  0  0
  -24.0290   12.0420   29.8324 H   0  0  0  0  0  0  0  0  0  0  0  0
  -22.0895   11.8768   28.7654 C   0  0  0  0  0  0  0  0  0  0  0  0
  -21.3459   12.0307   29.5053 H   0  0  0  0  0  0  0  0  0  0  0  0
  -19.9136   13.9294   27.3275 C   0  0  0  0  0  0  0  0  0  0  0  0
  -20.9770   14.1057   27.4985 H   0  0  0  0  0  0  0  0  0  0  0  0
  -19.3911   13.9895   28.2891 H   0  0  0  0  0  0  0  0  0  0  0  0
  -19.4101   15.0356   26.3818 C   0  0  0  0  0  0  0  0  0  0  0  0
  -19.4927   15.9939   26.8993 H   0  0  0  0  0  0  0  0  0  0  0  0
  -20.0438   15.0789   25.4877 H   0  0  0  0  0  0  0  0  0  0  0  0
  1  2  2  0
  2  3  1  0
  2  6  1  0
  3  4  1  0
  3  5  1  0
  6  7  1  0
  6 27  1  0
  7  8  1  0
  7  9  1  0
  7 10  1  0
 10 11  1  0
 10 12  1  0
 10 13  1  0
 13 14  1  0
 13 24  1  0
 14 15  2  0
 14 16  1  0
 16 17  1  0
 16 22  2  0
 17 18  1  0
 18 19  1  0
 18 20  2  0
 20 21  1  0
 20 22  1  0
 22 23  1  0
 24 25  1  0
 24 26  1  0
 24 27  1  0
 27 28  1  0
 27 29  1  0
M  END
$$$$
