F740_8
     RDKit          3D

 26 28  0  0  0  0  0  0  0  0999 V2000
  -20.2289   12.2620   28.9558 O   0  0  0  0  0  0  0  0  0  0  0  0
  -21.1660   12.4287   28.1816 C   0  0  0  0  0  0  0  0  0  0  0  0
  -20.9579   12.1485   26.8545 N   0  0  0  0  0  0  0  0  0  0  0  0
  -21.7631   12.1750   26.2225 H   0  0  0  0  0  0  0  0  0  0  0  0
  -19.6849   11.7914   26.3127 C   0  0  0  0  0  0  0  0  0  0  0  0
  -19.6101   10.7331   26.0714 H   0  0  0  0  0  0  0  0  0  0  0  0
  -18.4254   12.4581   26.7954 C   0  0  0  0  0  0  0  0  0  0  0  0
  -18.5012   13.2473   27.5337 H   0  0  0  0  0  0  0  0  0  0  0  0
  -17.5354   11.8469   26.8879 H   0  0  0  0  0  0  0  0  0  0  0  0
  -18.9410   12.7423   25.4157 C   0  0  0  0  0  0  0  0  0  0  0  0
  -18.4091   12.3199   24.5720 H   0  0  0  0  0  0  0  0  0  0  0  0
  -19.3787   13.7144   25.2235 H   0  0  0  0  0  0  0  0  0  0  0  0
  -22.5084   12.8614   28.6277 C   0  0  0  0  0  0  0  0  0  0  0  0
  -23.3488   13.4914   27.6901 C   0  0  0  0  0  0  0  0  0  0  0  0
  -23.0249   13.6537   26.6950 H   0  0  0  0  0  0  0  0  0  0  0  0
  -24.6102   13.8982   28.0914 C   0  0  0  0  0  0  0  0  0  0  0  0
  -25.5343   14.5204   27.3140 O   0  0  0  0  0  0  0  0  0  0  0  0
  -26.6141   14.6889   28.2559 C   0  0  0  0  0  0  0  0  0  0  0  0
  -26.8347   15.7577   28.3490 H   0  0  0  0  0  0  0  0  0  0  0  0
  -27.5025   14.1788   27.8662 H   0  0  0  0  0  0  0  0  0  0  0  0
  -26.3178   14.1628   29.5668 O   0  0  0  0  0  0  0  0  0  0  0  0
  -25.0564   13.6941   29.3737 C   0  0  0  0  0  0  0  0  0  0  0  0
  -24.2624   13.0673   30.3235 C   0  0  0  0  0  0  0  0  0  0  0  0
  -24.6270   12.9111   31.3067 H   0  0  0  0  0  0  0  0  0  0  0  0
  -22.9867   12.6476   29.9445 C   0  0  0  0  0  0  0  0  0  0  0  0
  -22.3772   12.1507   30.6554 H   0  0  0  0  0  0  0  0  0  0  0  0
  1  2  2  0
  2  3  1  0
  2 13  1  0
  3  4  1  0
  3  5  1  0
  5  6  1  0
  5  7  1  0
  5 10  1  0
  7  8  1  0
  7  9  1  0
  7 10  1  0
 10 11  1  0
 10 12  1  0
 13 14  1  0
 13 25  2  0
 14 15  1  0
 14 16  2  0
 16 17  1  0
 16 22  1  0
 17 18  1  0
 18 19  1  0
 18 20  1  0
 18 21  1  0
 21 22  1  0
 22 23  2  0
 23 24  1  0
 23 25  1  0
 25 26  1  0
M  END
$$$$
