F529_91
     RDKit          3D

 23 23  0  0  0  0  0  0  0  0999 V2000
  -17.8401   13.3495   23.6652 S   0  0  0  0  0  0  0  0  0  0  0  0
  -18.5074   12.3279   22.8744 O   0  0  0  0  0  0  0  0  0  0  0  0
  -17.5956   14.6691   23.1149 O   0  0  0  0  0  0  0  0  0  0  0  0
  -16.2904   12.6794   24.2088 C   0  0  0  0  0  0  0  0  0  0  0  0
  -16.4720   11.7341   24.7243 H   0  0  0  0  0  0  0  0  0  0  0  0
  -15.8014   13.3954   24.8722 H   0  0  0  0  0  0  0  0  0  0  0  0
  -15.6682   12.5076   23.3285 H   0  0  0  0  0  0  0  0  0  0  0  0
  -18.7430   13.5578   25.1742 C   0  0  0  0  0  0  0  0  0  0  0  0
  -18.6278   14.7045   25.9791 C   0  0  0  0  0  0  0  0  0  0  0  0
  -17.7608   15.7268   25.6015 N   0  0  0  0  0  0  0  0  0  0  0  0
  -17.2336   15.5916   24.7267 H   0  0  0  0  0  0  0  0  0  0  0  0
  -17.5176   16.9391   26.3453 C   0  0  0  0  0  0  0  0  0  0  0  0
  -18.4439   17.5040   26.4946 H   0  0  0  0  0  0  0  0  0  0  0  0
  -16.8252   17.5771   25.7870 H   0  0  0  0  0  0  0  0  0  0  0  0
  -17.0605   16.7227   27.3158 H   0  0  0  0  0  0  0  0  0  0  0  0
  -19.4024   14.8300   27.1400 C   0  0  0  0  0  0  0  0  0  0  0  0
  -19.3431   15.7020   27.7353 H   0  0  0  0  0  0  0  0  0  0  0  0
  -20.2585   13.8048   27.5193 C   0  0  0  0  0  0  0  0  0  0  0  0
  -20.8376   13.8971   28.4023 H   0  0  0  0  0  0  0  0  0  0  0  0
  -20.3562   12.6535   26.7447 C   0  0  0  0  0  0  0  0  0  0  0  0
  -21.0053   11.8681   27.0408 H   0  0  0  0  0  0  0  0  0  0  0  0
  -19.6048   12.5354   25.5794 C   0  0  0  0  0  0  0  0  0  0  0  0
  -19.6880   11.6572   24.9906 H   0  0  0  0  0  0  0  0  0  0  0  0
  1  2  2  0
  1  3  2  0
  1  4  1  0
  1  8  1  0
  4  5  1  0
  4  6  1  0
  4  7  1  0
  8  9  1  0
  8 22  2  0
  9 10  1  0
  9 16  2  0
 10 11  1  0
 10 12  1  0
 12 13  1  0
 12 14  1  0
 12 15  1  0
 16 17  1  0
 16 18  1  0
 18 19  1  0
 18 20  2  0
 20 21  1  0
 20 22  1  0
 22 23  1  0
M  END
$$$$
