F666_19
     RDKit          3D

 35 37  0  0  0  0  0  0  0  0999 V2000
  -19.9663   11.1755   24.7361 F   0  0  0  0  0  0  0  0  0  0  0  0
  -19.4575   12.3154   25.2249 C   0  0  0  0  0  0  0  0  0  0  0  0
  -18.5261   13.0142   24.4671 C   0  0  0  0  0  0  0  0  0  0  0  0
  -18.2289   12.6462   23.5198 H   0  0  0  0  0  0  0  0  0  0  0  0
  -17.9959   14.1971   24.9737 C   0  0  0  0  0  0  0  0  0  0  0  0
  -17.2888   14.7302   24.4008 H   0  0  0  0  0  0  0  0  0  0  0  0
  -18.3971   14.6614   26.2393 C   0  0  0  0  0  0  0  0  0  0  0  0
  -17.8582   15.8322   26.7578 N   0  0  0  0  0  0  0  0  0  0  0  0
  -18.6166   17.0901   26.8304 C   0  0  0  0  0  0  0  0  0  0  0  0
  -19.6017   17.0294   26.3572 H   0  0  0  0  0  0  0  0  0  0  0  0
  -18.7961   17.3159   27.8890 H   0  0  0  0  0  0  0  0  0  0  0  0
  -17.8109   18.2373   26.2001 C   0  0  0  0  0  0  0  0  0  0  0  0
  -18.3485   19.1795   26.3294 H   0  0  0  0  0  0  0  0  0  0  0  0
  -17.6988   18.0688   25.1227 H   0  0  0  0  0  0  0  0  0  0  0  0
  -16.4562   18.3044   26.7648 N   0  0  0  0  0  0  0  0  0  0  0  0
  -15.8940   19.4257   27.3280 C   0  0  0  0  0  0  0  0  0  0  0  0
  -14.7550   19.3596   27.7522 O   0  0  0  0  0  0  0  0  0  0  0  0
  -16.6785   20.6788   27.4007 C   0  0  0  0  0  0  0  0  0  0  0  0
  -16.7986   21.1804   26.4454 H   0  0  0  0  0  0  0  0  0  0  0  0
  -16.5366   21.5934   28.5970 C   0  0  0  0  0  0  0  0  0  0  0  0
  -15.8696   21.2932   29.3974 H   0  0  0  0  0  0  0  0  0  0  0  0
  -16.5661   22.6620   28.4227 H   0  0  0  0  0  0  0  0  0  0  0  0
  -17.8001   20.8117   28.4047 C   0  0  0  0  0  0  0  0  0  0  0  0
  -17.9885   19.9883   29.0850 H   0  0  0  0  0  0  0  0  0  0  0  0
  -18.6897   21.3511   28.1022 H   0  0  0  0  0  0  0  0  0  0  0  0
  -15.7095   17.0429   26.6796 C   0  0  0  0  0  0  0  0  0  0  0  0
  -15.5387   16.8486   25.6145 H   0  0  0  0  0  0  0  0  0  0  0  0
  -14.7289   17.1229   27.1594 H   0  0  0  0  0  0  0  0  0  0  0  0
  -16.4932   15.8763   27.3063 C   0  0  0  0  0  0  0  0  0  0  0  0
  -16.5537   16.0068   28.3930 H   0  0  0  0  0  0  0  0  0  0  0  0
  -15.9329   14.9554   27.1106 H   0  0  0  0  0  0  0  0  0  0  0  0
  -19.3566   13.9457   26.9741 C   0  0  0  0  0  0  0  0  0  0  0  0
  -19.6967   14.3147   27.9053 H   0  0  0  0  0  0  0  0  0  0  0  0
  -19.8840   12.7615   26.4681 C   0  0  0  0  0  0  0  0  0  0  0  0
  -20.6051   12.2106   27.0123 H   0  0  0  0  0  0  0  0  0  0  0  0
  1  2  1  0
  2  3  1  0
  2 34  2  0
  3  4  1  0
  3  5  2  0
  5  6  1  0
  5  7  1  0
  7  8  1  0
  7 32  2  0
  8  9  1  0
  8 29  1  0
  9 10  1  0
  9 11  1  0
  9 12  1  0
 12 13  1  0
 12 14  1  0
 12 15  1  0
 15 16  1  0
 15 26  1  0
 16 17  2  0
 16 18  1  0
 18 19  1  0
 18 20  1  0
 18 23  1  0
 20 21  1  0
 20 22  1  0
 20 23  1  0
 23 24  1  0
 23 25  1  0
 26 27  1  0
 26 28  1  0
 26 29  1  0
 29 30  1  0
 29 31  1  0
 32 33  1  0
 32 34  1  0
 34 35  1  0
M  END
$$$$
