F741_83
     RDKit          3D

 25 27  0  0  0  0  0  0  0  0999 V2000
  -19.8181   12.0815   28.9471 O   0  0  0  0  0  0  0  0  0  0  0  0
  -20.9362   12.3037   28.4864 C   0  0  0  0  0  0  0  0  0  0  0  0
  -21.0479   12.5991   27.1607 N   0  0  0  0  0  0  0  0  0  0  0  0
  -22.0105   12.7631   26.8229 H   0  0  0  0  0  0  0  0  0  0  0  0
  -19.9542   12.6821   26.2515 C   0  0  0  0  0  0  0  0  0  0  0  0
  -19.9182   11.8481   25.5544 H   0  0  0  0  0  0  0  0  0  0  0  0
  -18.6291   13.2414   26.6938 C   0  0  0  0  0  0  0  0  0  0  0  0
  -18.5332   13.6200   27.7041 H   0  0  0  0  0  0  0  0  0  0  0  0
  -17.7311   12.7757   26.3053 H   0  0  0  0  0  0  0  0  0  0  0  0
  -19.4869   14.0153   25.7366 C   0  0  0  0  0  0  0  0  0  0  0  0
  -19.1759   14.0723   24.7006 H   0  0  0  0  0  0  0  0  0  0  0  0
  -19.9802   14.9081   26.1034 H   0  0  0  0  0  0  0  0  0  0  0  0
  -22.1578   12.2662   29.2563 C   0  0  0  0  0  0  0  0  0  0  0  0
  -23.4026   12.6447   28.8195 C   0  0  0  0  0  0  0  0  0  0  0  0
  -24.2260   12.4271   29.8988 N   0  0  0  0  0  0  0  0  0  0  0  0
  -23.5654   11.9323   30.9791 N   0  0  0  0  0  0  0  0  0  0  0  0
  -22.3214   11.8423   30.5743 C   0  0  0  0  0  0  0  0  0  0  0  0
  -21.5356   11.4839   31.1920 H   0  0  0  0  0  0  0  0  0  0  0  0
  -25.5978   12.7020   29.8366 C   0  0  0  0  0  0  0  0  0  0  0  0
  -26.1498   12.5029   30.7181 H   0  0  0  0  0  0  0  0  0  0  0  0
  -26.0613   13.1956   28.6474 C   0  0  0  0  0  0  0  0  0  0  0  0
  -27.0860   13.4298   28.5218 H   0  0  0  0  0  0  0  0  0  0  0  0
  -25.1706   13.4086   27.5440 C   0  0  0  0  0  0  0  0  0  0  0  0
  -25.5529   13.7921   26.6330 H   0  0  0  0  0  0  0  0  0  0  0  0
  -23.8928   13.1498   27.6078 N   0  0  0  0  0  0  0  0  0  0  0  0
  1  2  2  0
  2  3  1  0
  2 13  1  0
  3  4  1  0
  3  5  1  0
  5  6  1  0
  5  7  1  0
  5 10  1  0
  7  8  1  0
  7  9  1  0
  7 10  1  0
 10 11  1  0
 10 12  1  0
 13 14  2  0
 13 17  1  0
 14 15  1  0
 14 25  1  0
 15 16  1  0
 15 19  1  0
 16 17  2  0
 17 18  1  0
 19 20  1  0
 19 21  2  0
 21 22  1  0
 21 23  1  0
 23 24  1  0
 23 25  2  0
M  END
$$$$
