F217_26
     RDKit          3D

 28 29  0  0  0  0  0  0  0  0999 V2000
  -22.9967   11.5256   32.5781 O   0  0  0  0  0  0  0  0  0  0  0  0
  -23.1315   11.5558   31.3660 C   0  0  0  0  0  0  0  0  0  0  0  0
  -23.0808   10.4315   30.6798 N   0  0  0  0  0  0  0  0  0  0  0  0
  -22.9289    9.5883   31.2082 H   0  0  0  0  0  0  0  0  0  0  0  0
  -23.1838   10.4244   29.6802 H   0  0  0  0  0  0  0  0  0  0  0  0
  -23.3603   12.8107   30.5662 C   0  0  0  0  0  0  0  0  0  0  0  0
  -23.0933   13.6740   31.1857 H   0  0  0  0  0  0  0  0  0  0  0  0
  -22.6797   12.7994   29.7063 H   0  0  0  0  0  0  0  0  0  0  0  0
  -24.8089   12.9085   30.1068 C   0  0  0  0  0  0  0  0  0  0  0  0
  -25.4790   13.1089   30.9499 H   0  0  0  0  0  0  0  0  0  0  0  0
  -25.1499   11.9672   29.6581 H   0  0  0  0  0  0  0  0  0  0  0  0
  -24.9879   13.9555   29.1186 N   0  0  0  0  0  0  0  0  0  0  0  0
  -25.0098   13.8058   27.7512 C   0  0  0  0  0  0  0  0  0  0  0  0
  -24.8364   12.4959   27.0692 C   0  0  0  0  0  0  0  0  0  0  0  0
  -24.9864   12.6041   25.9909 H   0  0  0  0  0  0  0  0  0  0  0  0
  -25.5612   11.7643   27.4369 H   0  0  0  0  0  0  0  0  0  0  0  0
  -23.8259   12.1087   27.2307 H   0  0  0  0  0  0  0  0  0  0  0  0
  -25.1991   14.9326   27.1491 N   0  0  0  0  0  0  0  0  0  0  0  0
  -25.3076   15.8760   28.1466 C   0  0  0  0  0  0  0  0  0  0  0  0
  -25.1755   15.2794   29.3841 C   0  0  0  0  0  0  0  0  0  0  0  0
  -25.2429   15.9984   30.5864 C   0  0  0  0  0  0  0  0  0  0  0  0
  -25.1339   15.5165   31.5236 H   0  0  0  0  0  0  0  0  0  0  0  0
  -25.4556   17.3661   30.5061 C   0  0  0  0  0  0  0  0  0  0  0  0
  -25.5131   17.9463   31.3898 H   0  0  0  0  0  0  0  0  0  0  0  0
  -25.5961   17.9956   29.2483 C   0  0  0  0  0  0  0  0  0  0  0  0
  -25.7580   19.0433   29.2046 H   0  0  0  0  0  0  0  0  0  0  0  0
  -25.5227   17.2589   28.0739 C   0  0  0  0  0  0  0  0  0  0  0  0
  -25.6247   17.7204   27.1282 H   0  0  0  0  0  0  0  0  0  0  0  0
  1  2  2  0
  2  3  1  0
  2  6  1  0
  3  4  1  0
  3  5  1  0
  6  7  1  0
  6  8  1  0
  6  9  1  0
  9 10  1  0
  9 11  1  0
  9 12  1  0
 12 13  1  0
 12 20  1  0
 13 14  1  0
 13 18  2  0
 14 15  1  0
 14 16  1  0
 14 17  1  0
 18 19  1  0
 19 20  1  0
 19 27  2  0
 20 21  2  0
 21 22  1  0
 21 23  1  0
 23 24  1  0
 23 25  2  0
 25 26  1  0
 25 27  1  0
 27 28  1  0
M  END
$$$$
