F650_14
     RDKit          3D

 23 24  0  0  0  0  0  0  0  0999 V2000
  -25.3970   14.3726   26.6326 O   0  0  0  0  0  0  0  0  0  0  0  0
  -24.7458   14.1121   27.6394 C   0  0  0  0  0  0  0  0  0  0  0  0
  -24.9031   14.9577   28.7255 N   0  0  0  0  0  0  0  0  0  0  0  0
  -24.1788   14.9373   29.9917 C   0  0  0  0  0  0  0  0  0  0  0  0
  -24.2376   13.9609   30.4740 H   0  0  0  0  0  0  0  0  0  0  0  0
  -23.1305   15.1774   29.7852 H   0  0  0  0  0  0  0  0  0  0  0  0
  -24.8480   16.0082   30.8452 C   0  0  0  0  0  0  0  0  0  0  0  0
  -25.6779   15.5683   31.4121 H   0  0  0  0  0  0  0  0  0  0  0  0
  -24.1588   16.4725   31.5542 H   0  0  0  0  0  0  0  0  0  0  0  0
  -25.3940   16.9848   29.8150 C   0  0  0  0  0  0  0  0  0  0  0  0
  -24.5888   17.6414   29.4640 H   0  0  0  0  0  0  0  0  0  0  0  0
  -26.2040   17.6086   30.2026 H   0  0  0  0  0  0  0  0  0  0  0  0
  -25.8458   16.0673   28.6909 C   0  0  0  0  0  0  0  0  0  0  0  0
  -25.8467   16.5660   27.7176 H   0  0  0  0  0  0  0  0  0  0  0  0
  -26.8458   15.6606   28.8823 H   0  0  0  0  0  0  0  0  0  0  0  0
  -23.8011   13.0128   27.6889 C   0  0  0  0  0  0  0  0  0  0  0  0
  -24.1140   11.7279   27.3571 C   0  0  0  0  0  0  0  0  0  0  0  0
  -25.0164   11.2970   27.0073 H   0  0  0  0  0  0  0  0  0  0  0  0
  -22.9991   11.0092   27.5646 N   0  0  0  0  0  0  0  0  0  0  0  0
  -22.9117    9.9871   27.4045 H   0  0  0  0  0  0  0  0  0  0  0  0
  -21.9727   11.7763   28.0261 N   0  0  0  0  0  0  0  0  0  0  0  0
  -22.4682   12.9782   28.1065 C   0  0  0  0  0  0  0  0  0  0  0  0
  -21.9130   13.8090   28.4608 H   0  0  0  0  0  0  0  0  0  0  0  0
  1  2  2  0
  2  3  1  0
  2 16  1  0
  3  4  1  0
  3 13  1  0
  4  5  1  0
  4  6  1  0
  4  7  1  0
  7  8  1  0
  7  9  1  0
  7 10  1  0
 10 11  1  0
 10 12  1  0
 10 13  1  0
 13 14  1  0
 13 15  1  0
 16 17  2  0
 16 22  1  0
 17 18  1  0
 17 19  1  0
 19 20  1  0
 19 21  1  0
 21 22  2  0
 22 23  1  0
M  END
$$$$
