F393_1
     RDKit          3D

 24 24  0  0  0  0  0  0  0  0999 V2000
  -23.6035   12.7794   26.3558 O   0  0  0  0  0  0  0  0  0  0  0  0
  -23.2646   13.3005   27.4109 C   0  0  0  0  0  0  0  0  0  0  0  0
  -21.9991   13.2669   27.9099 O   0  0  0  0  0  0  0  0  0  0  0  0
  -21.0652   12.5087   27.1306 C   0  0  0  0  0  0  0  0  0  0  0  0
  -21.3576   11.4533   27.1279 H   0  0  0  0  0  0  0  0  0  0  0  0
  -21.0466   12.8907   26.1040 H   0  0  0  0  0  0  0  0  0  0  0  0
  -19.6937   12.6591   27.7591 C   0  0  0  0  0  0  0  0  0  0  0  0
  -19.7027   12.3038   28.7953 H   0  0  0  0  0  0  0  0  0  0  0  0
  -19.3967   13.7131   27.7860 H   0  0  0  0  0  0  0  0  0  0  0  0
  -18.9431   12.0946   27.1985 H   0  0  0  0  0  0  0  0  0  0  0  0
  -24.1433   13.9851   28.2101 N   0  0  0  0  0  0  0  0  0  0  0  0
  -25.5463   14.1430   27.8290 C   0  0  0  0  0  0  0  0  0  0  0  0
  -25.6798   15.2002   27.5716 H   0  0  0  0  0  0  0  0  0  0  0  0
  -25.7910   13.5443   26.9457 H   0  0  0  0  0  0  0  0  0  0  0  0
  -26.4637   13.7719   28.9942 C   0  0  0  0  0  0  0  0  0  0  0  0
  -26.4033   12.7003   29.2205 H   0  0  0  0  0  0  0  0  0  0  0  0
  -27.5034   14.0046   28.7424 H   0  0  0  0  0  0  0  0  0  0  0  0
  -26.1213   14.5174   30.1717 O   0  0  0  0  0  0  0  0  0  0  0  0
  -24.7710   14.2419   30.5742 C   0  0  0  0  0  0  0  0  0  0  0  0
  -24.5687   14.8193   31.4818 H   0  0  0  0  0  0  0  0  0  0  0  0
  -24.6850   13.1776   30.8260 H   0  0  0  0  0  0  0  0  0  0  0  0
  -23.7818   14.6303   29.4743 C   0  0  0  0  0  0  0  0  0  0  0  0
  -22.7619   14.3839   29.7819 H   0  0  0  0  0  0  0  0  0  0  0  0
  -23.8302   15.7103   29.2937 H   0  0  0  0  0  0  0  0  0  0  0  0
  1  2  2  0
  2  3  1  0
  2 11  1  0
  3  4  1  0
  4  5  1  0
  4  6  1  0
  4  7  1  0
  7  8  1  0
  7  9  1  0
  7 10  1  0
 11 12  1  0
 11 22  1  0
 12 13  1  0
 12 14  1  0
 12 15  1  0
 15 16  1  0
 15 17  1  0
 15 18  1  0
 18 19  1  0
 19 20  1  0
 19 21  1  0
 19 22  1  0
 22 23  1  0
 22 24  1  0
M  END
$$$$
