F368_25
     RDKit          3D

 29 30  0  0  0  0  0  0  0  0999 V2000
  -20.7664   14.3038   28.0348 O   0  0  0  0  0  0  0  0  0  0  0  0
  -20.7433   13.3153   27.3258 C   0  0  0  0  0  0  0  0  0  0  0  0
  -21.8641   12.5514   27.1450 N   0  0  0  0  0  0  0  0  0  0  0  0
  -21.7421   11.7316   26.5394 H   0  0  0  0  0  0  0  0  0  0  0  0
  -23.1286   12.7529   27.6830 C   0  0  0  0  0  0  0  0  0  0  0  0
  -23.5318   13.7601   28.4848 C   0  0  0  0  0  0  0  0  0  0  0  0
  -23.0211   14.5974   28.8791 H   0  0  0  0  0  0  0  0  0  0  0  0
  -24.8404   13.5043   28.7331 N   0  0  0  0  0  0  0  0  0  0  0  0
  -25.7526   14.2769   29.5480 C   0  0  0  0  0  0  0  0  0  0  0  0
  -26.2239   13.5901   30.2604 H   0  0  0  0  0  0  0  0  0  0  0  0
  -25.1601   14.9986   30.1205 H   0  0  0  0  0  0  0  0  0  0  0  0
  -26.8000   14.9937   28.7152 C   0  0  0  0  0  0  0  0  0  0  0  0
  -27.4675   15.5731   29.3603 H   0  0  0  0  0  0  0  0  0  0  0  0
  -26.3327   15.6796   28.0013 H   0  0  0  0  0  0  0  0  0  0  0  0
  -27.4074   14.2820   28.1463 H   0  0  0  0  0  0  0  0  0  0  0  0
  -25.2717   12.3693   28.1072 N   0  0  0  0  0  0  0  0  0  0  0  0
  -24.2213   11.9186   27.4716 C   0  0  0  0  0  0  0  0  0  0  0  0
  -24.2278   11.0374   26.8840 H   0  0  0  0  0  0  0  0  0  0  0  0
  -19.4887   12.7970   26.5618 C   0  0  0  0  0  0  0  0  0  0  0  0
  -18.8825   12.1096   27.1714 H   0  0  0  0  0  0  0  0  0  0  0  0
  -19.7162   12.2124   25.1404 C   0  0  0  0  0  0  0  0  0  0  0  0
  -20.5838   12.6244   24.6137 H   0  0  0  0  0  0  0  0  0  0  0  0
  -19.7498   11.1209   25.0785 H   0  0  0  0  0  0  0  0  0  0  0  0
  -18.3787   12.8560   24.7297 C   0  0  0  0  0  0  0  0  0  0  0  0
  -18.3439   13.2812   23.7238 H   0  0  0  0  0  0  0  0  0  0  0  0
  -17.5124   12.1999   24.8723 H   0  0  0  0  0  0  0  0  0  0  0  0
  -18.5876   13.8622   25.8773 C   0  0  0  0  0  0  0  0  0  0  0  0
  -19.1151   14.7741   25.5729 H   0  0  0  0  0  0  0  0  0  0  0  0
  -17.6850   14.1417   26.4265 H   0  0  0  0  0  0  0  0  0  0  0  0
  1  2  2  0
  2  3  1  0
  2 19  1  0
  3  4  1  0
  3  5  1  0
  5  6  2  0
  5 17  1  0
  6  7  1  0
  6  8  1  0
  8  9  1  0
  8 16  1  0
  9 10  1  0
  9 11  1  0
  9 12  1  0
 12 13  1  0
 12 14  1  0
 12 15  1  0
 16 17  2  0
 17 18  1  0
 19 20  1  0
 19 21  1  0
 19 27  1  0
 21 22  1  0
 21 23  1  0
 21 24  1  0
 24 25  1  0
 24 26  1  0
 24 27  1  0
 27 28  1  0
 27 29  1  0
M  END
$$$$
