F709_96
     RDKit          3D

 29 30  0  0  0  0  0  0  0  0999 V2000
  -17.4977   14.8818   23.4493 O   0  0  0  0  0  0  0  0  0  0  0  0
  -17.5391   13.8192   24.0473 C   0  0  0  0  0  0  0  0  0  0  0  0
  -16.8916   12.7602   23.5566 N   0  0  0  0  0  0  0  0  0  0  0  0
  -17.3883   12.2691   22.8053 H   0  0  0  0  0  0  0  0  0  0  0  0
  -15.8729   12.8367   23.5034 H   0  0  0  0  0  0  0  0  0  0  0  0
  -18.2101   13.6317   25.2271 N   0  0  0  0  0  0  0  0  0  0  0  0
  -18.7411   14.7998   25.9356 C   0  0  0  0  0  0  0  0  0  0  0  0
  -18.5530   15.7251   25.3812 H   0  0  0  0  0  0  0  0  0  0  0  0
  -18.1983   14.8705   26.8860 H   0  0  0  0  0  0  0  0  0  0  0  0
  -20.2393   14.6473   26.1973 C   0  0  0  0  0  0  0  0  0  0  0  0
  -20.7841   14.6213   25.2458 H   0  0  0  0  0  0  0  0  0  0  0  0
  -20.6085   15.5108   26.7576 H   0  0  0  0  0  0  0  0  0  0  0  0
  -20.5391   13.3815   26.8836 N   0  0  0  0  0  0  0  0  0  0  0  0
  -21.3005   13.3791   28.0482 C   0  0  0  0  0  0  0  0  0  0  0  0
  -21.4393   14.4641   28.6137 O   0  0  0  0  0  0  0  0  0  0  0  0
  -21.8884   12.1627   28.5638 C   0  0  0  0  0  0  0  0  0  0  0  0
  -22.2184   11.1347   27.7251 O   0  0  0  0  0  0  0  0  0  0  0  0
  -22.7952   10.1605   28.4628 C   0  0  0  0  0  0  0  0  0  0  0  0
  -23.1179    9.2615   28.0032 H   0  0  0  0  0  0  0  0  0  0  0  0
  -22.8596   10.5488   29.7573 C   0  0  0  0  0  0  0  0  0  0  0  0
  -23.2645    9.9869   30.5582 H   0  0  0  0  0  0  0  0  0  0  0  0
  -22.2919   11.8435   29.8270 C   0  0  0  0  0  0  0  0  0  0  0  0
  -22.1887   12.4636   30.6808 H   0  0  0  0  0  0  0  0  0  0  0  0
  -19.9827   12.1891   26.2295 C   0  0  0  0  0  0  0  0  0  0  0  0
  -20.0808   11.3017   26.8573 H   0  0  0  0  0  0  0  0  0  0  0  0
  -20.5605   12.0323   25.3114 H   0  0  0  0  0  0  0  0  0  0  0  0
  -18.4887   12.3515   25.8930 C   0  0  0  0  0  0  0  0  0  0  0  0
  -18.1785   11.4984   25.2857 H   0  0  0  0  0  0  0  0  0  0  0  0
  -17.8956   12.3428   26.8155 H   0  0  0  0  0  0  0  0  0  0  0  0
  1  2  2  0
  2  3  1  0
  2  6  1  0
  3  4  1  0
  3  5  1  0
  6  7  1  0
  6 27  1  0
  7  8  1  0
  7  9  1  0
  7 10  1  0
 10 11  1  0
 10 12  1  0
 10 13  1  0
 13 14  1  0
 13 24  1  0
 14 15  2  0
 14 16  1  0
 16 17  1  0
 16 22  2  0
 17 18  1  0
 18 19  1  0
 18 20  2  0
 20 21  1  0
 20 22  1  0
 22 23  1  0
 24 25  1  0
 24 26  1  0
 24 27  1  0
 27 28  1  0
 27 29  1  0
M  END
$$$$
