F369_7
     RDKit          3D

 32 33  0  0  0  0  0  0  0  0999 V2000
  -20.9442   14.3212   28.0943 O   0  0  0  0  0  0  0  0  0  0  0  0
  -20.8459   13.3180   27.4153 C   0  0  0  0  0  0  0  0  0  0  0  0
  -21.9282   12.5142   27.1950 N   0  0  0  0  0  0  0  0  0  0  0  0
  -21.7275   11.6953   26.6125 H   0  0  0  0  0  0  0  0  0  0  0  0
  -23.2256   12.6711   27.6587 C   0  0  0  0  0  0  0  0  0  0  0  0
  -23.7191   13.6842   28.4004 C   0  0  0  0  0  0  0  0  0  0  0  0
  -23.2686   14.5610   28.7849 H   0  0  0  0  0  0  0  0  0  0  0  0
  -25.0232   13.3723   28.5924 N   0  0  0  0  0  0  0  0  0  0  0  0
  -26.0134   14.1251   29.3330 C   0  0  0  0  0  0  0  0  0  0  0  0
  -26.8839   13.4758   29.4754 H   0  0  0  0  0  0  0  0  0  0  0  0
  -25.5942   14.3487   30.3202 H   0  0  0  0  0  0  0  0  0  0  0  0
  -26.4080   15.4092   28.6251 C   0  0  0  0  0  0  0  0  0  0  0  0
  -26.8421   15.2015   27.6415 H   0  0  0  0  0  0  0  0  0  0  0  0
  -25.5396   16.0601   28.4755 H   0  0  0  0  0  0  0  0  0  0  0  0
  -27.1478   15.9572   29.2161 H   0  0  0  0  0  0  0  0  0  0  0  0
  -25.3675   12.1962   27.9901 N   0  0  0  0  0  0  0  0  0  0  0  0
  -24.2650   11.7753   27.4253 C   0  0  0  0  0  0  0  0  0  0  0  0
  -24.1983   10.8754   26.8711 H   0  0  0  0  0  0  0  0  0  0  0  0
  -19.5301   12.8829   26.7875 C   0  0  0  0  0  0  0  0  0  0  0  0
  -19.1241   12.0847   27.4216 H   0  0  0  0  0  0  0  0  0  0  0  0
  -19.7053   12.3609   25.3553 C   0  0  0  0  0  0  0  0  0  0  0  0
  -19.7033   11.2661   25.3247 H   0  0  0  0  0  0  0  0  0  0  0  0
  -20.6487   12.6915   24.9074 H   0  0  0  0  0  0  0  0  0  0  0  0
  -18.5288   12.9324   24.5768 C   0  0  0  0  0  0  0  0  0  0  0  0
  -17.6442   12.2987   24.7108 H   0  0  0  0  0  0  0  0  0  0  0  0
  -18.7360   13.0073   23.5057 H   0  0  0  0  0  0  0  0  0  0  0  0
  -18.3031   14.2893   25.2196 C   0  0  0  0  0  0  0  0  0  0  0  0
  -19.0493   15.0075   24.8625 H   0  0  0  0  0  0  0  0  0  0  0  0
  -17.3110   14.6932   24.9998 H   0  0  0  0  0  0  0  0  0  0  0  0
  -18.4968   14.0165   26.7061 C   0  0  0  0  0  0  0  0  0  0  0  0
  -18.7848   14.9216   27.2501 H   0  0  0  0  0  0  0  0  0  0  0  0
  -17.5477   13.6688   27.1347 H   0  0  0  0  0  0  0  0  0  0  0  0
  1  2  2  0
  2  3  1  0
  2 19  1  0
  3  4  1  0
  3  5  1  0
  5  6  2  0
  5 17  1  0
  6  7  1  0
  6  8  1  0
  8  9  1  0
  8 16  1  0
  9 10  1  0
  9 11  1  0
  9 12  1  0
 12 13  1  0
 12 14  1  0
 12 15  1  0
 16 17  2  0
 17 18  1  0
 19 20  1  0
 19 21  1  0
 19 30  1  0
 21 22  1  0
 21 23  1  0
 21 24  1  0
 24 25  1  0
 24 26  1  0
 24 27  1  0
 27 28  1  0
 27 29  1  0
 27 30  1  0
 30 31  1  0
 30 32  1  0
M  END
$$$$
