F616_18
     RDKit          3D

 26 26  0  0  0  0  0  0  0  0999 V2000
  -18.8735   12.5791   26.1663 S   0  0  0  0  0  0  0  0  0  0  0  0
  -18.4746   11.1963   26.3132 O   0  0  0  0  0  0  0  0  0  0  0  0
  -18.2664   13.6327   26.9514 O   0  0  0  0  0  0  0  0  0  0  0  0
  -20.5377   12.6989   26.3983 N   0  0  0  0  0  0  0  0  0  0  0  0
  -21.1041   12.2059   25.7035 H   0  0  0  0  0  0  0  0  0  0  0  0
  -21.0805   12.7682   27.7684 C   0  0  0  0  0  0  0  0  0  0  0  0
  -20.4517   12.1424   28.4113 H   0  0  0  0  0  0  0  0  0  0  0  0
  -21.0500   13.7941   28.1513 H   0  0  0  0  0  0  0  0  0  0  0  0
  -22.5137   12.2319   27.7996 C   0  0  0  0  0  0  0  0  0  0  0  0
  -23.1680   12.8446   27.1660 H   0  0  0  0  0  0  0  0  0  0  0  0
  -22.5290   11.2261   27.3607 H   0  0  0  0  0  0  0  0  0  0  0  0
  -23.0877   12.1570   29.1976 C   0  0  0  0  0  0  0  0  0  0  0  0
  -23.0842   10.9421   29.8929 C   0  0  0  0  0  0  0  0  0  0  0  0
  -22.6929   10.0691   29.4389 H   0  0  0  0  0  0  0  0  0  0  0  0
  -23.5962   10.8729   31.1864 C   0  0  0  0  0  0  0  0  0  0  0  0
  -23.5994    9.9593   31.7224 H   0  0  0  0  0  0  0  0  0  0  0  0
  -24.1037   12.0260   31.7677 C   0  0  0  0  0  0  0  0  0  0  0  0
  -24.5968   11.9610   33.0128 F   0  0  0  0  0  0  0  0  0  0  0  0
  -24.1145   13.2438   31.1032 C   0  0  0  0  0  0  0  0  0  0  0  0
  -24.5025   14.1072   31.5766 H   0  0  0  0  0  0  0  0  0  0  0  0
  -23.6025   13.3046   29.8093 C   0  0  0  0  0  0  0  0  0  0  0  0
  -23.5969   14.2309   29.2924 H   0  0  0  0  0  0  0  0  0  0  0  0
  -18.7176   13.0260   24.4506 C   0  0  0  0  0  0  0  0  0  0  0  0
  -19.2259   12.2811   23.8359 H   0  0  0  0  0  0  0  0  0  0  0  0
  -17.6537   13.0414   24.2032 H   0  0  0  0  0  0  0  0  0  0  0  0
  -19.1459   14.0187   24.3023 H   0  0  0  0  0  0  0  0  0  0  0  0
  1  2  2  0
  1  3  2  0
  1  4  1  0
  1 23  1  0
  4  5  1  0
  4  6  1  0
  6  7  1  0
  6  8  1  0
  6  9  1  0
  9 10  1  0
  9 11  1  0
  9 12  1  0
 12 13  1  0
 12 21  2  0
 13 14  1  0
 13 15  2  0
 15 16  1  0
 15 17  1  0
 17 18  1  0
 17 19  2  0
 19 20  1  0
 19 21  1  0
 21 22  1  0
 23 24  1  0
 23 25  1  0
 23 26  1  0
M  END
$$$$
