F579_57
     RDKit          3D

 29 31  0  0  0  0  0  0  0  0999 V2000
  -18.8774   13.1180   27.3095 O   0  0  0  0  0  0  0  0  0  0  0  0
  -19.5142   13.1091   26.2799 C   0  0  0  0  0  0  0  0  0  0  0  0
  -20.8599   12.9022   26.2710 N   0  0  0  0  0  0  0  0  0  0  0  0
  -21.3138   12.8888   25.3539 H   0  0  0  0  0  0  0  0  0  0  0  0
  -21.7274   12.6970   27.3182 C   0  0  0  0  0  0  0  0  0  0  0  0
  -21.1686   12.2483   28.9006 S   0  0  0  0  0  0  0  0  0  0  0  0
  -22.8170   12.2458   29.4238 C   0  0  0  0  0  0  0  0  0  0  0  0
  -23.6458   12.5850   28.3552 C   0  0  0  0  0  0  0  0  0  0  0  0
  -23.0040   12.8424   27.1501 N   0  0  0  0  0  0  0  0  0  0  0  0
  -25.0337   12.6431   28.5643 C   0  0  0  0  0  0  0  0  0  0  0  0
  -25.6679   12.8991   27.7565 H   0  0  0  0  0  0  0  0  0  0  0  0
  -25.5591   12.3650   29.8180 C   0  0  0  0  0  0  0  0  0  0  0  0
  -26.6055   12.4104   29.9715 H   0  0  0  0  0  0  0  0  0  0  0  0
  -24.6946   12.0252   30.8829 C   0  0  0  0  0  0  0  0  0  0  0  0
  -25.0973   11.7328   32.1623 O   0  0  0  0  0  0  0  0  0  0  0  0
  -24.9907   12.7678   33.1328 C   0  0  0  0  0  0  0  0  0  0  0  0
  -25.6259   13.6207   32.8710 H   0  0  0  0  0  0  0  0  0  0  0  0
  -25.3472   12.3691   34.0873 H   0  0  0  0  0  0  0  0  0  0  0  0
  -23.9488   13.0755   33.2694 H   0  0  0  0  0  0  0  0  0  0  0  0
  -23.3257   11.9626   30.6985 C   0  0  0  0  0  0  0  0  0  0  0  0
  -22.6803   11.7060   31.4976 H   0  0  0  0  0  0  0  0  0  0  0  0
  -18.8878   13.3397   24.9598 C   0  0  0  0  0  0  0  0  0  0  0  0
  -19.0666   12.5373   24.2491 H   0  0  0  0  0  0  0  0  0  0  0  0
  -17.5857   14.0953   24.8368 C   0  0  0  0  0  0  0  0  0  0  0  0
  -17.1205   14.5030   25.7274 H   0  0  0  0  0  0  0  0  0  0  0  0
  -16.8826   13.7720   24.0788 H   0  0  0  0  0  0  0  0  0  0  0  0
  -18.8640   14.7323   24.3778 C   0  0  0  0  0  0  0  0  0  0  0  0
  -19.0282   14.8373   23.3122 H   0  0  0  0  0  0  0  0  0  0  0  0
  -19.2699   15.5453   24.9705 H   0  0  0  0  0  0  0  0  0  0  0  0
  1  2  2  0
  2  3  1  0
  2 22  1  0
  3  4  1  0
  3  5  1  0
  5  6  1  0
  5  9  2  0
  6  7  1  0
  7  8  1  0
  7 20  2  0
  8  9  1  0
  8 10  2  0
 10 11  1  0
 10 12  1  0
 12 13  1  0
 12 14  2  0
 14 15  1  0
 14 20  1  0
 15 16  1  0
 16 17  1  0
 16 18  1  0
 16 19  1  0
 20 21  1  0
 22 23  1  0
 22 24  1  0
 22 27  1  0
 24 25  1  0
 24 26  1  0
 24 27  1  0
 27 28  1  0
 27 29  1  0
M  END
$$$$
