F179_32
     RDKit          3D

 29 30  0  0  0  0  0  0  0  0999 V2000
  -19.0485   12.2918   27.4523 C   0  0  0  0  0  0  0  0  0  0  0  0
  -18.9173   12.3264   28.5384 H   0  0  0  0  0  0  0  0  0  0  0  0
  -18.1310   12.6595   26.9793 H   0  0  0  0  0  0  0  0  0  0  0  0
  -19.1590   11.2440   27.1519 H   0  0  0  0  0  0  0  0  0  0  0  0
  -20.2494   13.1198   27.0060 C   0  0  0  0  0  0  0  0  0  0  0  0
  -20.3463   13.0520   25.5830 O   0  0  0  0  0  0  0  0  0  0  0  0
  -20.6566   12.1586   25.3567 H   0  0  0  0  0  0  0  0  0  0  0  0
  -21.5164   12.6600   27.6525 C   0  0  0  0  0  0  0  0  0  0  0  0
  -22.0797   11.3915   27.5760 C   0  0  0  0  0  0  0  0  0  0  0  0
  -21.6776   10.5746   27.0303 H   0  0  0  0  0  0  0  0  0  0  0  0
  -23.1846   11.3202   28.2682 N   0  0  0  0  0  0  0  0  0  0  0  0
  -23.3487   12.5639   28.8014 N   0  0  0  0  0  0  0  0  0  0  0  0
  -24.4827   12.8722   29.6379 C   0  0  0  0  0  0  0  0  0  0  0  0
  -25.0307   11.9335   29.8024 H   0  0  0  0  0  0  0  0  0  0  0  0
  -24.1257   13.4794   30.9937 C   0  0  0  0  0  0  0  0  0  0  0  0
  -23.7275   12.7352   31.6910 H   0  0  0  0  0  0  0  0  0  0  0  0
  -23.3737   14.2713   30.8941 H   0  0  0  0  0  0  0  0  0  0  0  0
  -25.4380   14.0823   31.4863 C   0  0  0  0  0  0  0  0  0  0  0  0
  -25.9593   13.3766   32.1436 H   0  0  0  0  0  0  0  0  0  0  0  0
  -25.2628   14.9968   32.0626 H   0  0  0  0  0  0  0  0  0  0  0  0
  -26.2829   14.3484   30.2400 C   0  0  0  0  0  0  0  0  0  0  0  0
  -26.5679   15.4029   30.1588 H   0  0  0  0  0  0  0  0  0  0  0  0
  -27.2085   13.7619   30.2882 H   0  0  0  0  0  0  0  0  0  0  0  0
  -25.4390   13.9072   29.0490 C   0  0  0  0  0  0  0  0  0  0  0  0
  -24.8951   14.7694   28.6427 H   0  0  0  0  0  0  0  0  0  0  0  0
  -26.0519   13.4960   28.2398 H   0  0  0  0  0  0  0  0  0  0  0  0
  -22.3420   13.3900   28.4381 C   0  0  0  0  0  0  0  0  0  0  0  0
  -22.2940   14.3971   28.7617 H   0  0  0  0  0  0  0  0  0  0  0  0
  -20.0780   14.1725   27.2644 H   0  0  0  0  0  0  0  0  0  0  0  0
  1  2  1  0
  1  3  1  0
  1  4  1  0
  1  5  1  0
  5  6  1  0
  5  8  1  0
  5 29  1  0
  6  7  1  0
  8  9  1  0
  8 27  2  0
  9 10  1  0
  9 11  2  0
 11 12  1  0
 12 13  1  0
 12 27  1  0
 13 14  1  0
 13 15  1  0
 13 24  1  0
 15 16  1  0
 15 17  1  0
 15 18  1  0
 18 19  1  0
 18 20  1  0
 18 21  1  0
 21 22  1  0
 21 23  1  0
 21 24  1  0
 24 25  1  0
 24 26  1  0
 27 28  1  0
M  END
$$$$
