F309_20
     RDKit          3D

 14 14  0  0  0  0  0  0  0  0999 V2000
  -25.5497   14.1869   26.6966 O   0  0  0  0  0  0  0  0  0  0  0  0
  -24.8490   13.1370   26.7108 C   0  0  0  0  0  0  0  0  0  0  0  0
  -24.7049   12.4655   25.6466 O   0  0  0  0  0  0  0  0  0  0  0  0
  -24.2086   12.7040   27.9462 C   0  0  0  0  0  0  0  0  0  0  0  0
  -24.2809   13.3121   29.1885 C   0  0  0  0  0  0  0  0  0  0  0  0
  -25.0565   14.5616   29.4880 C   0  0  0  0  0  0  0  0  0  0  0  0
  -24.9556   14.8476   30.5400 H   0  0  0  0  0  0  0  0  0  0  0  0
  -26.1225   14.4120   29.2895 H   0  0  0  0  0  0  0  0  0  0  0  0
  -24.6884   15.3984   28.8849 H   0  0  0  0  0  0  0  0  0  0  0  0
  -23.5449   12.6374   30.1759 C   0  0  0  0  0  0  0  0  0  0  0  0
  -23.4861   12.9562   31.1841 H   0  0  0  0  0  0  0  0  0  0  0  0
  -22.9108   11.5247   29.7051 C   0  0  0  0  0  0  0  0  0  0  0  0
  -22.2986   10.8527   30.2487 H   0  0  0  0  0  0  0  0  0  0  0  0
  -23.2074   11.2816   28.0274 S   0  0  0  0  0  0  0  0  0  0  0  0
  1  2  1  0
  2  3  2  0
  2  4  1  0
  4  5  2  0
  4 14  1  0
  5  6  1  0
  5 10  1  0
  6  7  1  0
  6  8  1  0
  6  9  1  0
 10 11  1  0
 10 12  2  0
 12 13  1  0
 12 14  1  0
M  END
$$$$
