F740_71
     RDKit          3D

 26 28  0  0  0  0  0  0  0  0999 V2000
  -25.7665   13.1848   28.2944 O   0  0  0  0  0  0  0  0  0  0  0  0
  -24.6766   13.4452   28.7942 C   0  0  0  0  0  0  0  0  0  0  0  0
  -24.6544   14.2810   29.8822 N   0  0  0  0  0  0  0  0  0  0  0  0
  -23.7655   14.4119   30.3736 H   0  0  0  0  0  0  0  0  0  0  0  0
  -25.8101   14.9538   30.3854 C   0  0  0  0  0  0  0  0  0  0  0  0
  -26.6705   14.2959   30.4890 H   0  0  0  0  0  0  0  0  0  0  0  0
  -26.1006   16.3800   30.0042 C   0  0  0  0  0  0  0  0  0  0  0  0
  -25.3952   16.9069   29.3730 H   0  0  0  0  0  0  0  0  0  0  0  0
  -27.1355   16.6574   29.8419 H   0  0  0  0  0  0  0  0  0  0  0  0
  -25.6735   16.0518   31.4041 C   0  0  0  0  0  0  0  0  0  0  0  0
  -26.4161   16.0976   32.1913 H   0  0  0  0  0  0  0  0  0  0  0  0
  -24.6771   16.3410   31.7159 H   0  0  0  0  0  0  0  0  0  0  0  0
  -23.4096   12.8562   28.3084 C   0  0  0  0  0  0  0  0  0  0  0  0
  -22.2327   13.6194   28.4300 C   0  0  0  0  0  0  0  0  0  0  0  0
  -22.2573   14.5896   28.8538 H   0  0  0  0  0  0  0  0  0  0  0  0
  -21.0379   13.0799   27.9839 C   0  0  0  0  0  0  0  0  0  0  0  0
  -19.8226   13.6855   28.0255 O   0  0  0  0  0  0  0  0  0  0  0  0
  -18.9893   12.6653   27.4369 C   0  0  0  0  0  0  0  0  0  0  0  0
  -18.5088   13.0775   26.5431 H   0  0  0  0  0  0  0  0  0  0  0  0
  -18.2120   12.3878   28.1581 H   0  0  0  0  0  0  0  0  0  0  0  0
  -19.7173   11.4766   27.0629 O   0  0  0  0  0  0  0  0  0  0  0  0
  -20.9779   11.8222   27.4366 C   0  0  0  0  0  0  0  0  0  0  0  0
  -22.1135   11.0349   27.3095 C   0  0  0  0  0  0  0  0  0  0  0  0
  -22.0464   10.0628   26.8916 H   0  0  0  0  0  0  0  0  0  0  0  0
  -23.3305   11.5554   27.7515 C   0  0  0  0  0  0  0  0  0  0  0  0
  -24.2022   10.9569   27.6774 H   0  0  0  0  0  0  0  0  0  0  0  0
  1  2  2  0
  2  3  1  0
  2 13  1  0
  3  4  1  0
  3  5  1  0
  5  6  1  0
  5  7  1  0
  5 10  1  0
  7  8  1  0
  7  9  1  0
  7 10  1  0
 10 11  1  0
 10 12  1  0
 13 14  1  0
 13 25  2  0
 14 15  1  0
 14 16  2  0
 16 17  1  0
 16 22  1  0
 17 18  1  0
 18 19  1  0
 18 20  1  0
 18 21  1  0
 21 22  1  0
 22 23  2  0
 23 24  1  0
 23 25  1  0
 25 26  1  0
M  END
$$$$
