F709_93
     RDKit          3D

 29 30  0  0  0  0  0  0  0  0999 V2000
  -17.1295   14.6282   23.4665 O   0  0  0  0  0  0  0  0  0  0  0  0
  -17.2642   13.5935   24.0989 C   0  0  0  0  0  0  0  0  0  0  0  0
  -16.6522   12.4823   23.6842 N   0  0  0  0  0  0  0  0  0  0  0  0
  -15.8113   12.6457   23.1196 H   0  0  0  0  0  0  0  0  0  0  0  0
  -16.6621   11.6907   24.3320 H   0  0  0  0  0  0  0  0  0  0  0  0
  -18.0085   13.4894   25.2446 N   0  0  0  0  0  0  0  0  0  0  0  0
  -18.5100   14.7115   25.8793 C   0  0  0  0  0  0  0  0  0  0  0  0
  -18.2393   15.6028   25.3037 H   0  0  0  0  0  0  0  0  0  0  0  0
  -18.0169   14.7893   26.8559 H   0  0  0  0  0  0  0  0  0  0  0  0
  -20.0265   14.6520   26.0606 C   0  0  0  0  0  0  0  0  0  0  0  0
  -20.5189   14.6188   25.0812 H   0  0  0  0  0  0  0  0  0  0  0  0
  -20.3760   15.5556   26.5677 H   0  0  0  0  0  0  0  0  0  0  0  0
  -20.4352   13.4322   26.7737 N   0  0  0  0  0  0  0  0  0  0  0  0
  -21.2582   13.5170   27.8924 C   0  0  0  0  0  0  0  0  0  0  0  0
  -21.3656   14.6293   28.4098 O   0  0  0  0  0  0  0  0  0  0  0  0
  -21.9419   12.3558   28.4170 C   0  0  0  0  0  0  0  0  0  0  0  0
  -22.2713   11.3097   27.6009 O   0  0  0  0  0  0  0  0  0  0  0  0
  -22.9455   10.3994   28.3377 C   0  0  0  0  0  0  0  0  0  0  0  0
  -23.2852    9.4983   27.8948 H   0  0  0  0  0  0  0  0  0  0  0  0
  -23.0723   10.8473   29.6081 C   0  0  0  0  0  0  0  0  0  0  0  0
  -23.5574   10.3425   30.4026 H   0  0  0  0  0  0  0  0  0  0  0  0
  -22.4424   12.1136   29.6625 C   0  0  0  0  0  0  0  0  0  0  0  0
  -22.3615   12.7649   30.4952 H   0  0  0  0  0  0  0  0  0  0  0  0
  -19.9127   12.1864   26.1955 C   0  0  0  0  0  0  0  0  0  0  0  0
  -20.0955   11.3310   26.8481 H   0  0  0  0  0  0  0  0  0  0  0  0
  -20.4473   12.0260   25.2522 H   0  0  0  0  0  0  0  0  0  0  0  0
  -18.3957   12.2533   25.9390 C   0  0  0  0  0  0  0  0  0  0  0  0
  -18.1018   11.3614   25.3813 H   0  0  0  0  0  0  0  0  0  0  0  0
  -17.8555   12.2480   26.8935 H   0  0  0  0  0  0  0  0  0  0  0  0
  1  2  2  0
  2  3  1  0
  2  6  1  0
  3  4  1  0
  3  5  1  0
  6  7  1  0
  6 27  1  0
  7  8  1  0
  7  9  1  0
  7 10  1  0
 10 11  1  0
 10 12  1  0
 10 13  1  0
 13 14  1  0
 13 24  1  0
 14 15  2  0
 14 16  1  0
 16 17  1  0
 16 22  2  0
 17 18  1  0
 18 19  1  0
 18 20  2  0
 20 21  1  0
 20 22  1  0
 22 23  1  0
 24 25  1  0
 24 26  1  0
 24 27  1  0
 27 28  1  0
 27 29  1  0
M  END
$$$$
