F374_4
     RDKit          3D

 18 18  0  0  0  0  0  0  0  0999 V2000
  -21.8902   13.4445   28.9095 O   0  0  0  0  0  0  0  0  0  0  0  0
  -22.2890   13.1493   27.7842 C   0  0  0  0  0  0  0  0  0  0  0  0
  -21.3788   12.6090   26.9175 N   0  0  0  0  0  0  0  0  0  0  0  0
  -21.7388   12.3094   26.0004 H   0  0  0  0  0  0  0  0  0  0  0  0
  -19.9790   12.4279   27.2397 C   0  0  0  0  0  0  0  0  0  0  0  0
  -19.8983   12.2016   28.3087 H   0  0  0  0  0  0  0  0  0  0  0  0
  -19.6142   11.5594   26.6822 H   0  0  0  0  0  0  0  0  0  0  0  0
  -19.1624   13.6585   26.8971 C   0  0  0  0  0  0  0  0  0  0  0  0
  -18.1091   13.5000   27.1471 H   0  0  0  0  0  0  0  0  0  0  0  0
  -19.2314   13.8889   25.8288 H   0  0  0  0  0  0  0  0  0  0  0  0
  -19.5212   14.5321   27.4514 H   0  0  0  0  0  0  0  0  0  0  0  0
  -23.6385   13.2955   27.2973 C   0  0  0  0  0  0  0  0  0  0  0  0
  -24.0658   12.7864   26.1052 N   0  0  0  0  0  0  0  0  0  0  0  0
  -25.3307   13.0977   25.9726 N   0  0  0  0  0  0  0  0  0  0  0  0
  -25.6990   13.7904   27.0608 N   0  0  0  0  0  0  0  0  0  0  0  0
  -26.6599   14.1544   27.2014 H   0  0  0  0  0  0  0  0  0  0  0  0
  -24.6780   13.9286   27.8950 C   0  0  0  0  0  0  0  0  0  0  0  0
  -24.7468   14.4417   28.8193 H   0  0  0  0  0  0  0  0  0  0  0  0
  1  2  2  0
  2  3  1  0
  2 12  1  0
  3  4  1  0
  3  5  1  0
  5  6  1  0
  5  7  1  0
  5  8  1  0
  8  9  1  0
  8 10  1  0
  8 11  1  0
 12 13  1  0
 12 17  2  0
 13 14  2  0
 14 15  1  0
 15 16  1  0
 15 17  1  0
 17 18  1  0
M  END
$$$$
