F579_54
     RDKit          3D

 29 31  0  0  0  0  0  0  0  0999 V2000
  -18.8786   13.1193   27.3147 O   0  0  0  0  0  0  0  0  0  0  0  0
  -19.5158   13.1100   26.2853 C   0  0  0  0  0  0  0  0  0  0  0  0
  -20.8616   12.9045   26.2771 N   0  0  0  0  0  0  0  0  0  0  0  0
  -21.3159   12.8906   25.3601 H   0  0  0  0  0  0  0  0  0  0  0  0
  -21.7290   12.7012   27.3248 C   0  0  0  0  0  0  0  0  0  0  0  0
  -21.1704   12.2501   28.9065 S   0  0  0  0  0  0  0  0  0  0  0  0
  -22.8185   12.2521   29.4308 C   0  0  0  0  0  0  0  0  0  0  0  0
  -23.6471   12.5941   28.3629 C   0  0  0  0  0  0  0  0  0  0  0  0
  -23.0054   12.8503   27.1575 N   0  0  0  0  0  0  0  0  0  0  0  0
  -25.0347   12.6560   28.5730 C   0  0  0  0  0  0  0  0  0  0  0  0
  -25.6686   12.9142   27.7658 H   0  0  0  0  0  0  0  0  0  0  0  0
  -25.5600   12.3788   29.8269 C   0  0  0  0  0  0  0  0  0  0  0  0
  -26.6061   12.4270   29.9812 H   0  0  0  0  0  0  0  0  0  0  0  0
  -24.6958   12.0360   30.8911 C   0  0  0  0  0  0  0  0  0  0  0  0
  -25.0984   11.7440   32.1706 O   0  0  0  0  0  0  0  0  0  0  0  0
  -25.0045   12.7835   33.1376 C   0  0  0  0  0  0  0  0  0  0  0  0
  -25.6478   13.6290   32.8713 H   0  0  0  0  0  0  0  0  0  0  0  0
  -25.3592   12.3846   34.0927 H   0  0  0  0  0  0  0  0  0  0  0  0
  -23.9662   13.1023   33.2755 H   0  0  0  0  0  0  0  0  0  0  0  0
  -23.3271   11.9696   30.7057 C   0  0  0  0  0  0  0  0  0  0  0  0
  -22.6819   11.7108   31.5042 H   0  0  0  0  0  0  0  0  0  0  0  0
  -18.8895   13.3387   24.9647 C   0  0  0  0  0  0  0  0  0  0  0  0
  -19.0647   12.5331   24.2567 H   0  0  0  0  0  0  0  0  0  0  0  0
  -17.5904   14.0991   24.8400 C   0  0  0  0  0  0  0  0  0  0  0  0
  -17.1274   14.5117   25.7294 H   0  0  0  0  0  0  0  0  0  0  0  0
  -16.8856   13.7762   24.0835 H   0  0  0  0  0  0  0  0  0  0  0  0
  -18.8710   14.7294   24.3780 C   0  0  0  0  0  0  0  0  0  0  0  0
  -19.0351   14.8302   23.3120 H   0  0  0  0  0  0  0  0  0  0  0  0
  -19.2806   15.5428   24.9678 H   0  0  0  0  0  0  0  0  0  0  0  0
  1  2  2  0
  2  3  1  0
  2 22  1  0
  3  4  1  0
  3  5  1  0
  5  6  1  0
  5  9  2  0
  6  7  1  0
  7  8  1  0
  7 20  2  0
  8  9  1  0
  8 10  2  0
 10 11  1  0
 10 12  1  0
 12 13  1  0
 12 14  2  0
 14 15  1  0
 14 20  1  0
 15 16  1  0
 16 17  1  0
 16 18  1  0
 16 19  1  0
 20 21  1  0
 22 23  1  0
 22 24  1  0
 22 27  1  0
 24 25  1  0
 24 26  1  0
 24 27  1  0
 27 28  1  0
 27 29  1  0
M  END
$$$$
