F584_10
     RDKit          3D

 27 28  0  0  0  0  0  0  0  0999 V2000
  -23.2697   12.2471   31.9092 O   0  0  0  0  0  0  0  0  0  0  0  0
  -23.9340   11.2922   32.7257 C   0  0  0  0  0  0  0  0  0  0  0  0
  -23.6788   11.5087   33.7680 H   0  0  0  0  0  0  0  0  0  0  0  0
  -23.5904   10.2757   32.5047 H   0  0  0  0  0  0  0  0  0  0  0  0
  -25.0213   11.3749   32.6268 H   0  0  0  0  0  0  0  0  0  0  0  0
  -23.4249   12.1636   30.5414 C   0  0  0  0  0  0  0  0  0  0  0  0
  -24.0794   13.2440   29.9326 C   0  0  0  0  0  0  0  0  0  0  0  0
  -24.2827   13.1862   28.5456 C   0  0  0  0  0  0  0  0  0  0  0  0
  -24.9553   14.1391   27.7440 N   0  0  0  0  0  0  0  0  0  0  0  0
  -24.9110   13.9709   26.7317 H   0  0  0  0  0  0  0  0  0  0  0  0
  -25.6815   15.2557   28.0146 C   0  0  0  0  0  0  0  0  0  0  0  0
  -26.1250   15.7829   27.0211 O   0  0  0  0  0  0  0  0  0  0  0  0
  -25.9753   15.7264   29.3964 C   0  0  0  0  0  0  0  0  0  0  0  0
  -26.3653   16.7483   29.3146 H   0  0  0  0  0  0  0  0  0  0  0  0
  -26.7674   15.1057   29.8295 H   0  0  0  0  0  0  0  0  0  0  0  0
  -24.7239   15.7470   30.2354 C   0  0  0  0  0  0  0  0  0  0  0  0
  -23.8527   16.0821   29.6585 H   0  0  0  0  0  0  0  0  0  0  0  0
  -24.8631   16.4661   31.0512 H   0  0  0  0  0  0  0  0  0  0  0  0
  -24.4723   14.3830   30.8492 C   0  0  0  0  0  0  0  0  0  0  0  0
  -25.3522   14.0688   31.4258 H   0  0  0  0  0  0  0  0  0  0  0  0
  -23.6616   14.5469   31.5711 H   0  0  0  0  0  0  0  0  0  0  0  0
  -23.8463   12.0892   27.7990 C   0  0  0  0  0  0  0  0  0  0  0  0
  -24.0080   12.0618   26.7522 H   0  0  0  0  0  0  0  0  0  0  0  0
  -23.1966   11.0331   28.4238 C   0  0  0  0  0  0  0  0  0  0  0  0
  -22.8640   10.2033   27.8549 H   0  0  0  0  0  0  0  0  0  0  0  0
  -22.9818   11.0662   29.7969 C   0  0  0  0  0  0  0  0  0  0  0  0
  -22.4858   10.2582   30.2655 H   0  0  0  0  0  0  0  0  0  0  0  0
  1  2  1  0
  1  6  1  0
  2  3  1  0
  2  4  1  0
  2  5  1  0
  6  7  1  0
  6 26  2  0
  7  8  2  0
  7 19  1  0
  8  9  1  0
  8 22  1  0
  9 10  1  0
  9 11  1  0
 11 12  2  0
 11 13  1  0
 13 14  1  0
 13 15  1  0
 13 16  1  0
 16 17  1  0
 16 18  1  0
 16 19  1  0
 19 20  1  0
 19 21  1  0
 22 23  1  0
 22 24  2  0
 24 25  1  0
 24 26  1  0
 26 27  1  0
M  END
$$$$
