F558_38
     RDKit          3D

 32 33  0  0  0  0  0  0  0  0999 V2000
  -18.8641   16.1224   26.4443 O   0  0  0  0  0  0  0  0  0  0  0  0
  -18.0192   15.2953   26.1349 C   0  0  0  0  0  0  0  0  0  0  0  0
  -16.7684   15.5786   25.6849 O   0  0  0  0  0  0  0  0  0  0  0  0
  -16.2874   16.8734   26.0529 C   0  0  0  0  0  0  0  0  0  0  0  0
  -16.2504   16.9729   27.1417 H   0  0  0  0  0  0  0  0  0  0  0  0
  -16.9179   17.6531   25.6129 H   0  0  0  0  0  0  0  0  0  0  0  0
  -15.2739   16.9823   25.6583 H   0  0  0  0  0  0  0  0  0  0  0  0
  -18.1916   13.9454   26.1582 N   0  0  0  0  0  0  0  0  0  0  0  0
  -17.3895   13.4241   25.7921 H   0  0  0  0  0  0  0  0  0  0  0  0
  -19.3029   13.1924   26.5954 C   0  0  0  0  0  0  0  0  0  0  0  0
  -19.5489   11.8811   26.1815 C   0  0  0  0  0  0  0  0  0  0  0  0
  -18.8977   11.3977   25.5027 H   0  0  0  0  0  0  0  0  0  0  0  0
  -20.6687   11.2114   26.6627 C   0  0  0  0  0  0  0  0  0  0  0  0
  -20.8554   10.2166   26.3467 H   0  0  0  0  0  0  0  0  0  0  0  0
  -21.5468   11.8380   27.5493 C   0  0  0  0  0  0  0  0  0  0  0  0
  -22.7738   11.1106   28.0515 C   0  0  0  0  0  0  0  0  0  0  0  0
  -22.4939   10.4672   28.8961 H   0  0  0  0  0  0  0  0  0  0  0  0
  -23.1359   10.4145   27.2831 H   0  0  0  0  0  0  0  0  0  0  0  0
  -23.8931   12.0348   28.4594 C   0  0  0  0  0  0  0  0  0  0  0  0
  -24.2834   12.1544   29.7881 C   0  0  0  0  0  0  0  0  0  0  0  0
  -23.7877   11.6084   30.5471 H   0  0  0  0  0  0  0  0  0  0  0  0
  -25.3359   12.9989   30.1264 C   0  0  0  0  0  0  0  0  0  0  0  0
  -25.6408   13.0950   31.1383 H   0  0  0  0  0  0  0  0  0  0  0  0
  -25.9919   13.7065   29.2094 N   0  0  0  0  0  0  0  0  0  0  0  0
  -25.6374   13.6060   27.9296 C   0  0  0  0  0  0  0  0  0  0  0  0
  -26.1781   14.1775   27.2172 H   0  0  0  0  0  0  0  0  0  0  0  0
  -24.5951   12.7805   27.5203 C   0  0  0  0  0  0  0  0  0  0  0  0
  -24.3448   12.7207   26.4924 H   0  0  0  0  0  0  0  0  0  0  0  0
  -21.2964   13.1540   27.9458 C   0  0  0  0  0  0  0  0  0  0  0  0
  -21.9571   13.6429   28.6147 H   0  0  0  0  0  0  0  0  0  0  0  0
  -20.1795   13.8330   27.4707 C   0  0  0  0  0  0  0  0  0  0  0  0
  -19.9923   14.8291   27.7784 H   0  0  0  0  0  0  0  0  0  0  0  0
  1  2  2  0
  2  3  1  0
  2  8  1  0
  3  4  1  0
  4  5  1  0
  4  6  1  0
  4  7  1  0
  8  9  1  0
  8 10  1  0
 10 11  1  0
 10 31  2  0
 11 12  1  0
 11 13  2  0
 13 14  1  0
 13 15  1  0
 15 16  1  0
 15 29  2  0
 16 17  1  0
 16 18  1  0
 16 19  1  0
 19 20  1  0
 19 27  2  0
 20 21  1  0
 20 22  2  0
 22 23  1  0
 22 24  1  0
 24 25  2  0
 25 26  1  0
 25 27  1  0
 27 28  1  0
 29 30  1  0
 29 31  1  0
 31 32  1  0
M  END
$$$$
