F95_26
     RDKit          3D

 27 27  0  0  0  0  0  0  0  0999 V2000
  -19.1332   11.8268   26.5519 S   0  0  0  0  0  0  0  0  0  0  0  0
  -19.0446   10.4111   26.2681 O   0  0  0  0  0  0  0  0  0  0  0  0
  -18.8406   12.8282   25.5499 O   0  0  0  0  0  0  0  0  0  0  0  0
  -18.1207   12.1315   27.8654 N   0  0  0  0  0  0  0  0  0  0  0  0
  -18.3473   11.5464   28.6730 H   0  0  0  0  0  0  0  0  0  0  0  0
  -18.0597   13.1292   28.0832 H   0  0  0  0  0  0  0  0  0  0  0  0
  -20.7142   12.1657   27.2398 C   0  0  0  0  0  0  0  0  0  0  0  0
  -20.9767   13.3958   27.8500 C   0  0  0  0  0  0  0  0  0  0  0  0
  -20.2210   14.1428   27.8688 H   0  0  0  0  0  0  0  0  0  0  0  0
  -22.2104   13.6459   28.4396 C   0  0  0  0  0  0  0  0  0  0  0  0
  -22.3913   14.5834   28.9024 H   0  0  0  0  0  0  0  0  0  0  0  0
  -23.2032   12.6680   28.4334 C   0  0  0  0  0  0  0  0  0  0  0  0
  -24.5119   12.9122   29.1329 C   0  0  0  0  0  0  0  0  0  0  0  0
  -24.3764   12.9256   30.2214 H   0  0  0  0  0  0  0  0  0  0  0  0
  -25.2298   12.1133   28.9103 H   0  0  0  0  0  0  0  0  0  0  0  0
  -25.0813   14.1759   28.7168 N   0  0  0  0  0  0  0  0  0  0  0  0
  -24.6524   14.6453   27.9379 H   0  0  0  0  0  0  0  0  0  0  0  0
  -26.1292   14.7169   29.3227 C   0  0  0  0  0  0  0  0  0  0  0  0
  -26.6801   14.1787   30.2715 O   0  0  0  0  0  0  0  0  0  0  0  0
  -26.5932   16.0258   28.7506 C   0  0  0  0  0  0  0  0  0  0  0  0
  -25.7546   16.7251   28.6851 H   0  0  0  0  0  0  0  0  0  0  0  0
  -27.0090   15.8629   27.7522 H   0  0  0  0  0  0  0  0  0  0  0  0
  -27.3635   16.4578   29.3952 H   0  0  0  0  0  0  0  0  0  0  0  0
  -22.9458   11.4363   27.8367 C   0  0  0  0  0  0  0  0  0  0  0  0
  -23.6902   10.6799   27.8391 H   0  0  0  0  0  0  0  0  0  0  0  0
  -21.7103   11.1864   27.2477 C   0  0  0  0  0  0  0  0  0  0  0  0
  -21.5183   10.2395   26.8060 H   0  0  0  0  0  0  0  0  0  0  0  0
  1  2  2  0
  1  3  2  0
  1  4  1  0
  1  7  1  0
  4  5  1  0
  4  6  1  0
  7  8  1  0
  7 26  2  0
  8  9  1  0
  8 10  2  0
 10 11  1  0
 10 12  1  0
 12 13  1  0
 12 24  2  0
 13 14  1  0
 13 15  1  0
 13 16  1  0
 16 17  1  0
 16 18  1  0
 18 19  2  0
 18 20  1  0
 20 21  1  0
 20 22  1  0
 20 23  1  0
 24 25  1  0
 24 26  1  0
 26 27  1  0
M  END
$$$$
