F503_23
     RDKit          3D

 29 30  0  0  0  0  0  0  0  0999 V2000
  -24.7124   12.2001   31.0543 F   0  0  0  0  0  0  0  0  0  0  0  0
  -25.2732   13.2856   30.4998 C   0  0  0  0  0  0  0  0  0  0  0  0
  -24.5110   14.1006   29.6596 C   0  0  0  0  0  0  0  0  0  0  0  0
  -23.0707   13.7794   29.3492 C   0  0  0  0  0  0  0  0  0  0  0  0
  -22.6332   13.1825   30.1596 H   0  0  0  0  0  0  0  0  0  0  0  0
  -22.5053   14.7211   29.3543 H   0  0  0  0  0  0  0  0  0  0  0  0
  -22.8727   13.0587   28.0198 C   0  0  0  0  0  0  0  0  0  0  0  0
  -21.4714   13.0185   27.4984 C   0  0  0  0  0  0  0  0  0  0  0  0
  -21.1510   13.4299   26.4017 O   0  0  0  0  0  0  0  0  0  0  0  0
  -20.5336   12.4703   28.3095 N   0  0  0  0  0  0  0  0  0  0  0  0
  -20.8421   12.0918   29.1940 H   0  0  0  0  0  0  0  0  0  0  0  0
  -19.1382   12.3892   27.9592 C   0  0  0  0  0  0  0  0  0  0  0  0
  -19.0248   11.7276   27.0964 H   0  0  0  0  0  0  0  0  0  0  0  0
  -18.7672   13.3855   27.7063 H   0  0  0  0  0  0  0  0  0  0  0  0
  -18.5852   11.9894   28.8128 H   0  0  0  0  0  0  0  0  0  0  0  0
  -23.9991   12.9879   26.9843 C   0  0  0  0  0  0  0  0  0  0  0  0
  -23.7284   12.9495   25.9330 H   0  0  0  0  0  0  0  0  0  0  0  0
  -24.9385   13.4967   27.1626 H   0  0  0  0  0  0  0  0  0  0  0  0
  -23.7019   11.7882   27.8189 C   0  0  0  0  0  0  0  0  0  0  0  0
  -23.2322   10.9371   27.3380 H   0  0  0  0  0  0  0  0  0  0  0  0
  -24.4275   11.5098   28.5748 H   0  0  0  0  0  0  0  0  0  0  0  0
  -25.1238   15.2275   29.1107 C   0  0  0  0  0  0  0  0  0  0  0  0
  -24.5779   15.8729   28.4715 H   0  0  0  0  0  0  0  0  0  0  0  0
  -26.4576   15.5175   29.4005 C   0  0  0  0  0  0  0  0  0  0  0  0
  -26.9135   16.3778   28.9770 H   0  0  0  0  0  0  0  0  0  0  0  0
  -27.1979   14.6868   30.2410 C   0  0  0  0  0  0  0  0  0  0  0  0
  -28.2113   14.9148   30.4559 H   0  0  0  0  0  0  0  0  0  0  0  0
  -26.6023   13.5597   30.7976 C   0  0  0  0  0  0  0  0  0  0  0  0
  -27.1473   12.9171   31.4389 H   0  0  0  0  0  0  0  0  0  0  0  0
  1  2  1  0
  2  3  1  0
  2 28  2  0
  3  4  1  0
  3 22  2  0
  4  5  1  0
  4  6  1  0
  4  7  1  0
  7  8  1  0
  7 16  1  0
  7 19  1  0
  8  9  2  0
  8 10  1  0
 10 11  1  0
 10 12  1  0
 12 13  1  0
 12 14  1  0
 12 15  1  0
 16 17  1  0
 16 18  1  0
 16 19  1  0
 19 20  1  0
 19 21  1  0
 22 23  1  0
 22 24  1  0
 24 25  1  0
 24 26  2  0
 26 27  1  0
 26 28  1  0
 28 29  1  0
M  END
$$$$
