F421_15
     RDKit          3D

 19 19  0  0  0  0  0  0  0  0999 V2000
  -25.6521   14.2675   26.6760 O   0  0  0  0  0  0  0  0  0  0  0  0
  -25.2634   13.9570   27.7997 C   0  0  0  0  0  0  0  0  0  0  0  0
  -25.7874   14.6857   28.8658 N   0  0  0  0  0  0  0  0  0  0  0  0
  -26.4864   15.9386   28.6145 C   0  0  0  0  0  0  0  0  0  0  0  0
  -26.0877   16.7061   29.2859 H   0  0  0  0  0  0  0  0  0  0  0  0
  -27.5506   15.7914   28.8197 H   0  0  0  0  0  0  0  0  0  0  0  0
  -26.3662   16.2834   27.5847 H   0  0  0  0  0  0  0  0  0  0  0  0
  -25.7200   14.2726   30.2613 C   0  0  0  0  0  0  0  0  0  0  0  0
  -26.6814   14.4787   30.7431 H   0  0  0  0  0  0  0  0  0  0  0  0
  -24.9359   14.8501   30.7592 H   0  0  0  0  0  0  0  0  0  0  0  0
  -25.5191   13.2038   30.3591 H   0  0  0  0  0  0  0  0  0  0  0  0
  -24.3118   12.8835   28.0211 C   0  0  0  0  0  0  0  0  0  0  0  0
  -24.2562   11.7421   27.2781 C   0  0  0  0  0  0  0  0  0  0  0  0
  -24.8513   11.4051   26.4695 H   0  0  0  0  0  0  0  0  0  0  0  0
  -23.2250   11.0315   27.7649 N   0  0  0  0  0  0  0  0  0  0  0  0
  -22.9212   10.1050   27.4097 H   0  0  0  0  0  0  0  0  0  0  0  0
  -22.6022   11.6711   28.7921 N   0  0  0  0  0  0  0  0  0  0  0  0
  -23.2577   12.7882   28.9323 C   0  0  0  0  0  0  0  0  0  0  0  0
  -22.9975   13.5227   29.6534 H   0  0  0  0  0  0  0  0  0  0  0  0
  1  2  2  0
  2  3  1  0
  2 12  1  0
  3  4  1  0
  3  8  1  0
  4  5  1  0
  4  6  1  0
  4  7  1  0
  8  9  1  0
  8 10  1  0
  8 11  1  0
 12 13  2  0
 12 18  1  0
 13 14  1  0
 13 15  1  0
 15 16  1  0
 15 17  1  0
 17 18  2  0
 18 19  1  0
M  END
$$$$
