F618_6
     RDKit          3D

 26 26  0  0  0  0  0  0  0  0999 V2000
  -23.2868   13.8000   31.9907 F   0  0  0  0  0  0  0  0  0  0  0  0
  -23.1306   12.5435   31.5452 C   0  0  0  0  0  0  0  0  0  0  0  0
  -23.6577   12.1155   30.3129 C   0  0  0  0  0  0  0  0  0  0  0  0
  -24.3553   12.9855   29.4597 N   0  0  0  0  0  0  0  0  0  0  0  0
  -23.8681   13.1189   28.0664 C   0  0  0  0  0  0  0  0  0  0  0  0
  -24.5679   12.1117   27.1351 C   0  0  0  0  0  0  0  0  0  0  0  0
  -25.6106   11.9703   27.4392 H   0  0  0  0  0  0  0  0  0  0  0  0
  -24.0809   11.1320   27.1629 H   0  0  0  0  0  0  0  0  0  0  0  0
  -24.5648   12.5564   25.7800 O   0  0  0  0  0  0  0  0  0  0  0  0
  -25.0210   13.4169   25.7988 H   0  0  0  0  0  0  0  0  0  0  0  0
  -22.3423   13.0005   27.9668 C   0  0  0  0  0  0  0  0  0  0  0  0
  -22.0080   13.2883   26.9636 H   0  0  0  0  0  0  0  0  0  0  0  0
  -21.9863   11.9806   28.1391 H   0  0  0  0  0  0  0  0  0  0  0  0
  -21.8495   13.6627   28.6854 H   0  0  0  0  0  0  0  0  0  0  0  0
  -25.5196   13.7199   29.9331 C   0  0  0  0  0  0  0  0  0  0  0  0
  -26.3906   13.0604   30.0058 H   0  0  0  0  0  0  0  0  0  0  0  0
  -25.7882   14.5480   29.2707 H   0  0  0  0  0  0  0  0  0  0  0  0
  -25.3270   14.1839   30.9079 H   0  0  0  0  0  0  0  0  0  0  0  0
  -23.5046   10.8509   29.8909 N   0  0  0  0  0  0  0  0  0  0  0  0
  -22.8481    9.9874   30.6757 C   0  0  0  0  0  0  0  0  0  0  0  0
  -22.7409    8.9916   30.3293 H   0  0  0  0  0  0  0  0  0  0  0  0
  -22.3123   10.3541   31.9118 C   0  0  0  0  0  0  0  0  0  0  0  0
  -21.8008    9.6376   32.5000 H   0  0  0  0  0  0  0  0  0  0  0  0
  -22.4512   11.6632   32.3655 C   0  0  0  0  0  0  0  0  0  0  0  0
  -22.0556   11.9786   33.2960 H   0  0  0  0  0  0  0  0  0  0  0  0
  -24.0893   14.1289   27.6957 H   0  0  0  0  0  0  0  0  0  0  0  0
  1  2  1  0
  2  3  1  0
  2 24  2  0
  3  4  1  0
  3 19  2  0
  4  5  1  0
  4 15  1  0
  5  6  1  0
  5 11  1  0
  5 26  1  0
  6  7  1  0
  6  8  1  0
  6  9  1  0
  9 10  1  0
 11 12  1  0
 11 13  1  0
 11 14  1  0
 15 16  1  0
 15 17  1  0
 15 18  1  0
 19 20  1  0
 20 21  1  0
 20 22  2  0
 22 23  1  0
 22 24  1  0
 24 25  1  0
M  END
$$$$
