F362_0
     RDKit          3D

 30 31  0  0  0  0  0  0  0  0999 V2000
  -18.3751   19.2344   26.2421 N   0  0  0  0  0  0  0  0  0  0  0  0
  -19.8269   19.4689   26.1208 C   0  0  0  0  0  0  0  0  0  0  0  0
  -20.0478   20.2866   25.4293 H   0  0  0  0  0  0  0  0  0  0  0  0
  -20.3067   18.5947   25.6629 H   0  0  0  0  0  0  0  0  0  0  0  0
  -20.4572   19.6960   27.4867 C   0  0  0  0  0  0  0  0  0  0  0  0
  -19.9972   20.5323   28.0199 H   0  0  0  0  0  0  0  0  0  0  0  0
  -20.3506   18.8078   28.1191 H   0  0  0  0  0  0  0  0  0  0  0  0
  -21.5266   19.9058   27.3802 H   0  0  0  0  0  0  0  0  0  0  0  0
  -17.5933   20.4818   26.3594 C   0  0  0  0  0  0  0  0  0  0  0  0
  -16.9129   20.6022   25.5095 H   0  0  0  0  0  0  0  0  0  0  0  0
  -18.2593   21.3532   26.3169 H   0  0  0  0  0  0  0  0  0  0  0  0
  -16.8221   20.5168   27.6715 C   0  0  0  0  0  0  0  0  0  0  0  0
  -16.1125   19.6871   27.7438 H   0  0  0  0  0  0  0  0  0  0  0  0
  -17.4998   20.4498   28.5283 H   0  0  0  0  0  0  0  0  0  0  0  0
  -16.2603   21.4523   27.7543 H   0  0  0  0  0  0  0  0  0  0  0  0
  -17.7650   17.9299   26.2470 C   0  0  0  0  0  0  0  0  0  0  0  0
  -16.3779   17.7326   25.9042 N   0  0  0  0  0  0  0  0  0  0  0  0
  -15.4357   18.6315   25.5434 N   0  0  0  0  0  0  0  0  0  0  0  0
  -14.3910   17.8841   25.3617 C   0  0  0  0  0  0  0  0  0  0  0  0
  -13.4544   18.2879   25.0639 H   0  0  0  0  0  0  0  0  0  0  0  0
  -14.5640   16.5749   25.5714 N   0  0  0  0  0  0  0  0  0  0  0  0
  -15.8160   16.4799   25.9146 C   0  0  0  0  0  0  0  0  0  0  0  0
  -16.5264   15.3384   26.2453 N   0  0  0  0  0  0  0  0  0  0  0  0
  -17.7742   15.4661   26.5601 C   0  0  0  0  0  0  0  0  0  0  0  0
  -18.5679   14.2415   26.9240 C   0  0  0  0  0  0  0  0  0  0  0  0
  -19.6052   14.4908   27.1589 H   0  0  0  0  0  0  0  0  0  0  0  0
  -18.1124   13.7621   27.7952 H   0  0  0  0  0  0  0  0  0  0  0  0
  -18.5539   13.5403   26.0841 H   0  0  0  0  0  0  0  0  0  0  0  0
  -18.4631   16.7833   26.5784 C   0  0  0  0  0  0  0  0  0  0  0  0
  -19.4846   16.8333   26.8327 H   0  0  0  0  0  0  0  0  0  0  0  0
  1  2  1  0
  1  9  1  0
  1 16  1  0
  2  3  1  0
  2  4  1  0
  2  5  1  0
  5  6  1  0
  5  7  1  0
  5  8  1  0
  9 10  1  0
  9 11  1  0
  9 12  1  0
 12 13  1  0
 12 14  1  0
 12 15  1  0
 16 17  1  0
 16 29  2  0
 17 18  1  0
 17 22  1  0
 18 19  2  0
 19 20  1  0
 19 21  1  0
 21 22  2  0
 22 23  1  0
 23 24  2  0
 24 25  1  0
 24 29  1  0
 25 26  1  0
 25 27  1  0
 25 28  1  0
 29 30  1  0
M  END
$$$$
