F558_16
     RDKit          3D

 32 33  0  0  0  0  0  0  0  0999 V2000
  -17.4393   15.7130   27.4423 O   0  0  0  0  0  0  0  0  0  0  0  0
  -17.2487   15.2336   26.3343 C   0  0  0  0  0  0  0  0  0  0  0  0
  -16.2773   15.6204   25.4661 O   0  0  0  0  0  0  0  0  0  0  0  0
  -15.5092   16.7445   25.9016 C   0  0  0  0  0  0  0  0  0  0  0  0
  -15.0038   16.5204   26.8456 H   0  0  0  0  0  0  0  0  0  0  0  0
  -16.1497   17.6268   26.0040 H   0  0  0  0  0  0  0  0  0  0  0  0
  -14.7517   16.9515   25.1412 H   0  0  0  0  0  0  0  0  0  0  0  0
  -17.9937   14.2483   25.7628 N   0  0  0  0  0  0  0  0  0  0  0  0
  -17.7197   14.0350   24.7992 H   0  0  0  0  0  0  0  0  0  0  0  0
  -19.0709   13.5129   26.3031 C   0  0  0  0  0  0  0  0  0  0  0  0
  -19.3130   12.1723   25.9942 C   0  0  0  0  0  0  0  0  0  0  0  0
  -18.6852   11.6510   25.3214 H   0  0  0  0  0  0  0  0  0  0  0  0
  -20.3981   11.5229   26.5729 C   0  0  0  0  0  0  0  0  0  0  0  0
  -20.5820   10.5057   26.3366 H   0  0  0  0  0  0  0  0  0  0  0  0
  -21.2455   12.1986   27.4532 C   0  0  0  0  0  0  0  0  0  0  0  0
  -22.4359   11.4918   28.0619 C   0  0  0  0  0  0  0  0  0  0  0  0
  -22.1108   10.9319   28.9489 H   0  0  0  0  0  0  0  0  0  0  0  0
  -22.8067   10.7227   27.3714 H   0  0  0  0  0  0  0  0  0  0  0  0
  -23.5631   12.4237   28.4281 C   0  0  0  0  0  0  0  0  0  0  0  0
  -24.4557   12.8897   27.4700 C   0  0  0  0  0  0  0  0  0  0  0  0
  -24.3716   12.5836   26.4604 H   0  0  0  0  0  0  0  0  0  0  0  0
  -25.4703   13.7674   27.8385 C   0  0  0  0  0  0  0  0  0  0  0  0
  -26.1550   14.1286   27.1129 H   0  0  0  0  0  0  0  0  0  0  0  0
  -25.6183   14.1827   29.0945 N   0  0  0  0  0  0  0  0  0  0  0  0
  -24.7734   13.7517   30.0293 C   0  0  0  0  0  0  0  0  0  0  0  0
  -24.9102   14.1002   31.0224 H   0  0  0  0  0  0  0  0  0  0  0  0
  -23.7359   12.8742   29.7313 C   0  0  0  0  0  0  0  0  0  0  0  0
  -23.0787   12.5572   30.4997 H   0  0  0  0  0  0  0  0  0  0  0  0
  -20.9999   13.5428   27.7443 C   0  0  0  0  0  0  0  0  0  0  0  0
  -21.6377   14.0688   28.4072 H   0  0  0  0  0  0  0  0  0  0  0  0
  -19.9175   14.2018   27.1712 C   0  0  0  0  0  0  0  0  0  0  0  0
  -19.7336   15.2197   27.3990 H   0  0  0  0  0  0  0  0  0  0  0  0
  1  2  2  0
  2  3  1  0
  2  8  1  0
  3  4  1  0
  4  5  1  0
  4  6  1  0
  4  7  1  0
  8  9  1  0
  8 10  1  0
 10 11  1  0
 10 31  2  0
 11 12  1  0
 11 13  2  0
 13 14  1  0
 13 15  1  0
 15 16  1  0
 15 29  2  0
 16 17  1  0
 16 18  1  0
 16 19  1  0
 19 20  1  0
 19 27  2  0
 20 21  1  0
 20 22  2  0
 22 23  1  0
 22 24  1  0
 24 25  2  0
 25 26  1  0
 25 27  1  0
 27 28  1  0
 29 30  1  0
 29 31  1  0
 31 32  1  0
M  END
$$$$
