F205_66
     RDKit          3D

 20 20  0  0  0  0  0  0  0  0999 V2000
  -17.6412   11.4424   24.3297 O   0  0  0  0  0  0  0  0  0  0  0  0
  -18.1716   12.4562   24.8247 C   0  0  0  0  0  0  0  0  0  0  0  0
  -18.9381   12.3197   25.9981 N   0  0  0  0  0  0  0  0  0  0  0  0
  -19.0896   10.9999   26.6031 C   0  0  0  0  0  0  0  0  0  0  0  0
  -18.7048   11.0245   27.6270 H   0  0  0  0  0  0  0  0  0  0  0  0
  -18.5416   10.2268   26.0572 H   0  0  0  0  0  0  0  0  0  0  0  0
  -20.1491   10.7243   26.6053 H   0  0  0  0  0  0  0  0  0  0  0  0
  -19.5671   13.4409   26.5861 C   0  0  0  0  0  0  0  0  0  0  0  0
  -20.4015   13.2621   27.8238 C   0  0  0  0  0  0  0  0  0  0  0  0
  -21.2396   12.5842   27.6319 H   0  0  0  0  0  0  0  0  0  0  0  0
  -20.8266   14.2111   28.1682 H   0  0  0  0  0  0  0  0  0  0  0  0
  -19.7998   12.8621   28.6453 H   0  0  0  0  0  0  0  0  0  0  0  0
  -19.3978   14.6781   26.0290 C   0  0  0  0  0  0  0  0  0  0  0  0
  -19.8615   15.5234   26.4683 H   0  0  0  0  0  0  0  0  0  0  0  0
  -18.6162   14.8687   24.8576 C   0  0  0  0  0  0  0  0  0  0  0  0
  -18.5088   15.8385   24.4451 H   0  0  0  0  0  0  0  0  0  0  0  0
  -18.0239   13.7934   24.2647 C   0  0  0  0  0  0  0  0  0  0  0  0
  -17.2637   13.8978   23.1262 N   0  0  0  0  0  0  0  0  0  0  0  0
  -17.1106   14.7879   22.6747 H   0  0  0  0  0  0  0  0  0  0  0  0
  -16.8582   13.0423   22.7539 H   0  0  0  0  0  0  0  0  0  0  0  0
  1  2  2  0
  2  3  1  0
  2 17  1  0
  3  4  1  0
  3  8  1  0
  4  5  1  0
  4  6  1  0
  4  7  1  0
  8  9  1  0
  8 13  2  0
  9 10  1  0
  9 11  1  0
  9 12  1  0
 13 14  1  0
 13 15  1  0
 15 16  1  0
 15 17  2  0
 17 18  1  0
 18 19  1  0
 18 20  1  0
M  END
$$$$
