F13_16
     RDKit          3D

 16 16  0  0  0  0  0  0  0  0999 V2000
  -19.6559   11.1147   25.9749 Br  0  0  0  0  0  0  0  0  0  0  0  0
  -19.1584   12.8948   25.7104 C   0  0  0  0  0  0  0  0  0  0  0  0
  -19.0668   13.8770   26.6310 C   0  0  0  0  0  0  0  0  0  0  0  0
  -19.2375   13.8835   27.6755 H   0  0  0  0  0  0  0  0  0  0  0  0
  -18.6688   14.9782   25.9530 N   0  0  0  0  0  0  0  0  0  0  0  0
  -18.4302   16.3103   26.4723 C   0  0  0  0  0  0  0  0  0  0  0  0
  -18.6737   17.0147   25.6692 H   0  0  0  0  0  0  0  0  0  0  0  0
  -19.1316   16.4672   27.2994 H   0  0  0  0  0  0  0  0  0  0  0  0
  -16.9903   16.4918   26.9258 C   0  0  0  0  0  0  0  0  0  0  0  0
  -16.7891   15.8476   27.7864 H   0  0  0  0  0  0  0  0  0  0  0  0
  -16.7750   17.5293   27.2020 H   0  0  0  0  0  0  0  0  0  0  0  0
  -16.1028   16.1018   25.8821 O   0  0  0  0  0  0  0  0  0  0  0  0
  -16.3083   16.6561   25.1087 H   0  0  0  0  0  0  0  0  0  0  0  0
  -18.4987   14.7239   24.6265 N   0  0  0  0  0  0  0  0  0  0  0  0
  -18.8005   13.4587   24.4908 C   0  0  0  0  0  0  0  0  0  0  0  0
  -18.7691   12.9469   23.5636 H   0  0  0  0  0  0  0  0  0  0  0  0
  1  2  1  0
  2  3  2  0
  2 15  1  0
  3  4  1  0
  3  5  1  0
  5  6  1  0
  5 14  1  0
  6  7  1  0
  6  8  1  0
  6  9  1  0
  9 10  1  0
  9 11  1  0
  9 12  1  0
 12 13  1  0
 14 15  2  0
 15 16  1  0
M  END
$$$$
