F616_46
     RDKit          3D

 26 26  0  0  0  0  0  0  0  0999 V2000
  -19.3837   13.3190   26.0386 S   0  0  0  0  0  0  0  0  0  0  0  0
  -18.8059   14.2971   26.9343 O   0  0  0  0  0  0  0  0  0  0  0  0
  -19.3497   13.4908   24.6017 O   0  0  0  0  0  0  0  0  0  0  0  0
  -20.9961   13.0728   26.4595 N   0  0  0  0  0  0  0  0  0  0  0  0
  -21.5157   12.4597   25.8264 H   0  0  0  0  0  0  0  0  0  0  0  0
  -21.3815   13.0361   27.8831 C   0  0  0  0  0  0  0  0  0  0  0  0
  -20.7529   12.2906   28.3826 H   0  0  0  0  0  0  0  0  0  0  0  0
  -21.2097   14.0066   28.3614 H   0  0  0  0  0  0  0  0  0  0  0  0
  -22.8491   12.6259   28.0258 C   0  0  0  0  0  0  0  0  0  0  0  0
  -23.5090   13.4787   27.8195 H   0  0  0  0  0  0  0  0  0  0  0  0
  -23.0861   11.8733   27.2630 H   0  0  0  0  0  0  0  0  0  0  0  0
  -23.1740   12.0518   29.3875 C   0  0  0  0  0  0  0  0  0  0  0  0
  -23.0073   10.6830   29.6292 C   0  0  0  0  0  0  0  0  0  0  0  0
  -22.6668   10.0429   28.8574 H   0  0  0  0  0  0  0  0  0  0  0  0
  -23.2890   10.1536   30.8863 C   0  0  0  0  0  0  0  0  0  0  0  0
  -23.1672    9.1196   31.0812 H   0  0  0  0  0  0  0  0  0  0  0  0
  -23.7327   11.0059   31.8872 C   0  0  0  0  0  0  0  0  0  0  0  0
  -24.0042   10.4977   33.0978 F   0  0  0  0  0  0  0  0  0  0  0  0
  -23.9015   12.3667   31.6762 C   0  0  0  0  0  0  0  0  0  0  0  0
  -24.2351   12.9918   32.4623 H   0  0  0  0  0  0  0  0  0  0  0  0
  -23.6195   12.8884   30.4159 C   0  0  0  0  0  0  0  0  0  0  0  0
  -23.7362   13.9284   30.2427 H   0  0  0  0  0  0  0  0  0  0  0  0
  -18.6698   11.7315   26.4096 C   0  0  0  0  0  0  0  0  0  0  0  0
  -18.7420   11.5451   27.4826 H   0  0  0  0  0  0  0  0  0  0  0  0
  -17.6191   11.7583   26.1121 H   0  0  0  0  0  0  0  0  0  0  0  0
  -19.1959   10.9640   25.8396 H   0  0  0  0  0  0  0  0  0  0  0  0
  1  2  2  0
  1  3  2  0
  1  4  1  0
  1 23  1  0
  4  5  1  0
  4  6  1  0
  6  7  1  0
  6  8  1  0
  6  9  1  0
  9 10  1  0
  9 11  1  0
  9 12  1  0
 12 13  1  0
 12 21  2  0
 13 14  1  0
 13 15  2  0
 15 16  1  0
 15 17  1  0
 17 18  1  0
 17 19  2  0
 19 20  1  0
 19 21  1  0
 21 22  1  0
 23 24  1  0
 23 25  1  0
 23 26  1  0
M  END
$$$$
