F579_52
     RDKit          3D

 29 31  0  0  0  0  0  0  0  0999 V2000
  -17.2127   18.2371   27.1888 O   0  0  0  0  0  0  0  0  0  0  0  0
  -16.2452   17.5951   26.8461 C   0  0  0  0  0  0  0  0  0  0  0  0
  -16.3214   16.2574   26.6042 N   0  0  0  0  0  0  0  0  0  0  0  0
  -15.4495   15.7906   26.3407 H   0  0  0  0  0  0  0  0  0  0  0  0
  -17.4034   15.4107   26.6645 C   0  0  0  0  0  0  0  0  0  0  0  0
  -18.9914   15.9766   27.0831 S   0  0  0  0  0  0  0  0  0  0  0  0
  -19.5619   14.3553   26.8903 C   0  0  0  0  0  0  0  0  0  0  0  0
  -18.5006   13.5279   26.5258 C   0  0  0  0  0  0  0  0  0  0  0  0
  -17.2647   14.1499   26.3992 N   0  0  0  0  0  0  0  0  0  0  0  0
  -18.7466   12.1608   26.3160 C   0  0  0  0  0  0  0  0  0  0  0  0
  -17.9447   11.5277   26.0400 H   0  0  0  0  0  0  0  0  0  0  0  0
  -20.0288   11.6542   26.4724 C   0  0  0  0  0  0  0  0  0  0  0  0
  -20.2101   10.6236   26.3128 H   0  0  0  0  0  0  0  0  0  0  0  0
  -21.0855   12.5169   26.8413 C   0  0  0  0  0  0  0  0  0  0  0  0
  -22.3904   12.1318   27.0232 O   0  0  0  0  0  0  0  0  0  0  0  0
  -22.6227   10.9500   27.7807 C   0  0  0  0  0  0  0  0  0  0  0  0
  -22.2611   11.0628   28.8083 H   0  0  0  0  0  0  0  0  0  0  0  0
  -23.7040   10.7886   27.8253 H   0  0  0  0  0  0  0  0  0  0  0  0
  -22.1758   10.0758   27.2960 H   0  0  0  0  0  0  0  0  0  0  0  0
  -20.8649   13.8655   27.0525 C   0  0  0  0  0  0  0  0  0  0  0  0
  -21.6579   14.5094   27.3306 H   0  0  0  0  0  0  0  0  0  0  0  0
  -14.9159   18.2127   26.6458 C   0  0  0  0  0  0  0  0  0  0  0  0
  -14.1671   17.8687   27.3541 H   0  0  0  0  0  0  0  0  0  0  0  0
  -14.7836   19.6266   26.1311 C   0  0  0  0  0  0  0  0  0  0  0  0
  -15.6765   20.1853   25.8737 H   0  0  0  0  0  0  0  0  0  0  0  0
  -13.9790   20.2354   26.5252 H   0  0  0  0  0  0  0  0  0  0  0  0
  -14.4171   18.4728   25.2450 C   0  0  0  0  0  0  0  0  0  0  0  0
  -13.3674   18.2982   25.0420 H   0  0  0  0  0  0  0  0  0  0  0  0
  -15.0735   18.2406   24.4130 H   0  0  0  0  0  0  0  0  0  0  0  0
  1  2  2  0
  2  3  1  0
  2 22  1  0
  3  4  1  0
  3  5  1  0
  5  6  1  0
  5  9  2  0
  6  7  1  0
  7  8  1  0
  7 20  2  0
  8  9  1  0
  8 10  2  0
 10 11  1  0
 10 12  1  0
 12 13  1  0
 12 14  2  0
 14 15  1  0
 14 20  1  0
 15 16  1  0
 16 17  1  0
 16 18  1  0
 16 19  1  0
 20 21  1  0
 22 23  1  0
 22 24  1  0
 22 27  1  0
 24 25  1  0
 24 26  1  0
 24 27  1  0
 27 28  1  0
 27 29  1  0
M  END
$$$$
