F584_5
     RDKit          3D

 27 28  0  0  0  0  0  0  0  0999 V2000
  -23.9360   13.2821   33.0821 O   0  0  0  0  0  0  0  0  0  0  0  0
  -22.9312   13.8119   33.9363 C   0  0  0  0  0  0  0  0  0  0  0  0
  -23.3908   14.5963   34.5460 H   0  0  0  0  0  0  0  0  0  0  0  0
  -22.1231   14.2725   33.3577 H   0  0  0  0  0  0  0  0  0  0  0  0
  -22.5463   13.0457   34.6172 H   0  0  0  0  0  0  0  0  0  0  0  0
  -23.5869   12.2833   32.1975 C   0  0  0  0  0  0  0  0  0  0  0  0
  -23.8197   12.5572   30.8422 C   0  0  0  0  0  0  0  0  0  0  0  0
  -23.5044   11.5566   29.9106 C   0  0  0  0  0  0  0  0  0  0  0  0
  -23.7001   11.6061   28.5098 N   0  0  0  0  0  0  0  0  0  0  0  0
  -23.3096   10.8151   27.9837 H   0  0  0  0  0  0  0  0  0  0  0  0
  -24.3177   12.4819   27.6737 C   0  0  0  0  0  0  0  0  0  0  0  0
  -24.2893   12.1306   26.5172 O   0  0  0  0  0  0  0  0  0  0  0  0
  -25.0329   13.6994   28.1463 C   0  0  0  0  0  0  0  0  0  0  0  0
  -25.2242   14.3251   27.2659 H   0  0  0  0  0  0  0  0  0  0  0  0
  -26.0046   13.4101   28.5616 H   0  0  0  0  0  0  0  0  0  0  0  0
  -24.1874   14.4755   29.1226 C   0  0  0  0  0  0  0  0  0  0  0  0
  -23.1285   14.4739   28.8347 H   0  0  0  0  0  0  0  0  0  0  0  0
  -24.5188   15.5205   29.1167 H   0  0  0  0  0  0  0  0  0  0  0  0
  -24.3652   13.9340   30.5281 C   0  0  0  0  0  0  0  0  0  0  0  0
  -25.4292   13.9493   30.7986 H   0  0  0  0  0  0  0  0  0  0  0  0
  -23.8627   14.6654   31.1747 H   0  0  0  0  0  0  0  0  0  0  0  0
  -22.9758   10.3307   30.3219 C   0  0  0  0  0  0  0  0  0  0  0  0
  -22.7432    9.5859   29.6050 H   0  0  0  0  0  0  0  0  0  0  0  0
  -22.7499   10.0844   31.6695 C   0  0  0  0  0  0  0  0  0  0  0  0
  -22.3462    9.1547   31.9789 H   0  0  0  0  0  0  0  0  0  0  0  0
  -23.0529   11.0596   32.6128 C   0  0  0  0  0  0  0  0  0  0  0  0
  -22.8776   10.8647   33.6374 H   0  0  0  0  0  0  0  0  0  0  0  0
  1  2  1  0
  1  6  1  0
  2  3  1  0
  2  4  1  0
  2  5  1  0
  6  7  1  0
  6 26  2  0
  7  8  2  0
  7 19  1  0
  8  9  1  0
  8 22  1  0
  9 10  1  0
  9 11  1  0
 11 12  2  0
 11 13  1  0
 13 14  1  0
 13 15  1  0
 13 16  1  0
 16 17  1  0
 16 18  1  0
 16 19  1  0
 19 20  1  0
 19 21  1  0
 22 23  1  0
 22 24  2  0
 24 25  1  0
 24 26  1  0
 26 27  1  0
M  END
$$$$
