F96_1
     RDKit          3D

 19 19  0  0  0  0  0  0  0  0999 V2000
  -16.0653   16.1008   27.8293 O   0  0  0  0  0  0  0  0  0  0  0  0
  -16.0773   16.5903   26.7089 C   0  0  0  0  0  0  0  0  0  0  0  0
  -17.1748   16.6288   25.9667 N   0  0  0  0  0  0  0  0  0  0  0  0
  -17.1478   17.0286   25.0444 H   0  0  0  0  0  0  0  0  0  0  0  0
  -18.4388   16.1012   26.4351 C   0  0  0  0  0  0  0  0  0  0  0  0
  -18.5266   16.3097   27.5069 H   0  0  0  0  0  0  0  0  0  0  0  0
  -19.2520   16.6256   25.9218 H   0  0  0  0  0  0  0  0  0  0  0  0
  -18.4816   14.6401   26.1653 C   0  0  0  0  0  0  0  0  0  0  0  0
  -18.0663   14.0021   25.0456 C   0  0  0  0  0  0  0  0  0  0  0  0
  -17.6383   14.3630   24.1459 H   0  0  0  0  0  0  0  0  0  0  0  0
  -18.3004   12.6902   25.2629 N   0  0  0  0  0  0  0  0  0  0  0  0
  -18.0899   11.9254   24.5947 H   0  0  0  0  0  0  0  0  0  0  0  0
  -18.8590   12.4696   26.4815 N   0  0  0  0  0  0  0  0  0  0  0  0
  -18.9629   13.6534   27.0200 C   0  0  0  0  0  0  0  0  0  0  0  0
  -19.3699   13.8178   27.9863 H   0  0  0  0  0  0  0  0  0  0  0  0
  -14.8408   17.1602   26.0714 C   0  0  0  0  0  0  0  0  0  0  0  0
  -15.0941   17.9161   25.3227 H   0  0  0  0  0  0  0  0  0  0  0  0
  -14.2815   16.3535   25.5916 H   0  0  0  0  0  0  0  0  0  0  0  0
  -14.2197   17.6289   26.8398 H   0  0  0  0  0  0  0  0  0  0  0  0
  1  2  2  0
  2  3  1  0
  2 16  1  0
  3  4  1  0
  3  5  1  0
  5  6  1  0
  5  7  1  0
  5  8  1  0
  8  9  2  0
  8 14  1  0
  9 10  1  0
  9 11  1  0
 11 12  1  0
 11 13  1  0
 13 14  2  0
 14 15  1  0
 16 17  1  0
 16 18  1  0
 16 19  1  0
M  END
$$$$
