F393_21
     RDKit          3D

 24 24  0  0  0  0  0  0  0  0999 V2000
  -19.9234   12.2569   28.9292 O   0  0  0  0  0  0  0  0  0  0  0  0
  -20.7845   12.5359   28.1042 C   0  0  0  0  0  0  0  0  0  0  0  0
  -20.5251   13.0389   26.8668 O   0  0  0  0  0  0  0  0  0  0  0  0
  -19.1415   13.0325   26.4927 C   0  0  0  0  0  0  0  0  0  0  0  0
  -18.5633   13.6286   27.2068 H   0  0  0  0  0  0  0  0  0  0  0  0
  -18.7678   12.0028   26.4815 H   0  0  0  0  0  0  0  0  0  0  0  0
  -19.0240   13.6363   25.1070 C   0  0  0  0  0  0  0  0  0  0  0  0
  -19.4171   14.6588   25.0967 H   0  0  0  0  0  0  0  0  0  0  0  0
  -19.6139   13.0607   24.3857 H   0  0  0  0  0  0  0  0  0  0  0  0
  -17.9816   13.6552   24.7763 H   0  0  0  0  0  0  0  0  0  0  0  0
  -22.1224   12.3643   28.3490 N   0  0  0  0  0  0  0  0  0  0  0  0
  -22.5941   11.8168   29.6204 C   0  0  0  0  0  0  0  0  0  0  0  0
  -22.9806   10.8146   29.4011 H   0  0  0  0  0  0  0  0  0  0  0  0
  -21.7761   11.7157   30.3408 H   0  0  0  0  0  0  0  0  0  0  0  0
  -23.7086   12.6884   30.1993 C   0  0  0  0  0  0  0  0  0  0  0  0
  -23.3276   13.6729   30.4972 H   0  0  0  0  0  0  0  0  0  0  0  0
  -24.1366   12.2106   31.0865 H   0  0  0  0  0  0  0  0  0  0  0  0
  -24.7659   12.8664   29.2454 O   0  0  0  0  0  0  0  0  0  0  0  0
  -24.2784   13.5118   28.0592 C   0  0  0  0  0  0  0  0  0  0  0  0
  -25.1243   13.6384   27.3762 H   0  0  0  0  0  0  0  0  0  0  0  0
  -23.9072   14.5096   28.3241 H   0  0  0  0  0  0  0  0  0  0  0  0
  -23.1856   12.6760   27.3911 C   0  0  0  0  0  0  0  0  0  0  0  0
  -22.8014   13.1957   26.5090 H   0  0  0  0  0  0  0  0  0  0  0  0
  -23.5983   11.7144   27.0653 H   0  0  0  0  0  0  0  0  0  0  0  0
  1  2  2  0
  2  3  1  0
  2 11  1  0
  3  4  1  0
  4  5  1  0
  4  6  1  0
  4  7  1  0
  7  8  1  0
  7  9  1  0
  7 10  1  0
 11 12  1  0
 11 22  1  0
 12 13  1  0
 12 14  1  0
 12 15  1  0
 15 16  1  0
 15 17  1  0
 15 18  1  0
 18 19  1  0
 19 20  1  0
 19 21  1  0
 19 22  1  0
 22 23  1  0
 22 24  1  0
M  END
$$$$
