F229_85
     RDKit          3D

 27 28  0  0  0  0  0  0  0  0999 V2000
  -18.9066   14.4252   27.6310 F   0  0  0  0  0  0  0  0  0  0  0  0
  -18.8727   13.8935   26.3986 C   0  0  0  0  0  0  0  0  0  0  0  0
  -19.5979   12.7238   26.0949 C   0  0  0  0  0  0  0  0  0  0  0  0
  -20.3887   12.0461   27.0142 N   0  0  0  0  0  0  0  0  0  0  0  0
  -20.4762   11.0400   26.9331 H   0  0  0  0  0  0  0  0  0  0  0  0
  -21.1054   12.6793   28.1075 C   0  0  0  0  0  0  0  0  0  0  0  0
  -20.7196   12.3009   29.0620 H   0  0  0  0  0  0  0  0  0  0  0  0
  -20.9231   13.7604   28.0904 H   0  0  0  0  0  0  0  0  0  0  0  0
  -22.5868   12.4570   28.0766 C   0  0  0  0  0  0  0  0  0  0  0  0
  -23.3841   11.9835   29.1166 C   0  0  0  0  0  0  0  0  0  0  0  0
  -22.9762   11.5813   30.4842 C   0  0  0  0  0  0  0  0  0  0  0  0
  -22.3974   12.3785   30.9627 H   0  0  0  0  0  0  0  0  0  0  0  0
  -22.3550   10.6802   30.4465 H   0  0  0  0  0  0  0  0  0  0  0  0
  -23.8421   11.3689   31.1198 H   0  0  0  0  0  0  0  0  0  0  0  0
  -24.6341   11.9194   28.7536 N   0  0  0  0  0  0  0  0  0  0  0  0
  -24.6514   12.3579   27.4711 N   0  0  0  0  0  0  0  0  0  0  0  0
  -25.5220   12.4200   26.9106 H   0  0  0  0  0  0  0  0  0  0  0  0
  -23.4198   12.6941   27.0368 C   0  0  0  0  0  0  0  0  0  0  0  0
  -23.2420   13.0617   26.0604 H   0  0  0  0  0  0  0  0  0  0  0  0
  -19.5345   12.2191   24.7949 C   0  0  0  0  0  0  0  0  0  0  0  0
  -20.0827   11.3503   24.5405 H   0  0  0  0  0  0  0  0  0  0  0  0
  -18.7521   12.8586   23.8346 C   0  0  0  0  0  0  0  0  0  0  0  0
  -18.7050   12.4689   22.8493 H   0  0  0  0  0  0  0  0  0  0  0  0
  -18.0295   14.0104   24.1544 C   0  0  0  0  0  0  0  0  0  0  0  0
  -17.4381   14.4881   23.4153 H   0  0  0  0  0  0  0  0  0  0  0  0
  -18.0924   14.5318   25.4450 C   0  0  0  0  0  0  0  0  0  0  0  0
  -17.5541   15.4092   25.6990 H   0  0  0  0  0  0  0  0  0  0  0  0
  1  2  1  0
  2  3  1  0
  2 26  2  0
  3  4  1  0
  3 20  2  0
  4  5  1  0
  4  6  1  0
  6  7  1  0
  6  8  1  0
  6  9  1  0
  9 10  1  0
  9 18  2  0
 10 11  1  0
 10 15  2  0
 11 12  1  0
 11 13  1  0
 11 14  1  0
 15 16  1  0
 16 17  1  0
 16 18  1  0
 18 19  1  0
 20 21  1  0
 20 22  1  0
 22 23  1  0
 22 24  2  0
 24 25  1  0
 24 26  1  0
 26 27  1  0
M  END
$$$$
