F740_53
     RDKit          3D

 26 28  0  0  0  0  0  0  0  0999 V2000
  -16.2085   15.3771   25.4259 O   0  0  0  0  0  0  0  0  0  0  0  0
  -17.3466   15.6005   25.8263 C   0  0  0  0  0  0  0  0  0  0  0  0
  -17.7080   16.9082   26.0317 N   0  0  0  0  0  0  0  0  0  0  0  0
  -18.6868   17.1103   26.2548 H   0  0  0  0  0  0  0  0  0  0  0  0
  -16.7998   18.0057   25.9205 C   0  0  0  0  0  0  0  0  0  0  0  0
  -15.8751   17.7392   25.4130 H   0  0  0  0  0  0  0  0  0  0  0  0
  -16.6901   19.0314   27.0158 C   0  0  0  0  0  0  0  0  0  0  0  0
  -17.3432   18.9498   27.8764 H   0  0  0  0  0  0  0  0  0  0  0  0
  -15.7059   19.4252   27.2406 H   0  0  0  0  0  0  0  0  0  0  0  0
  -17.3112   19.4032   25.7020 C   0  0  0  0  0  0  0  0  0  0  0  0
  -16.7492   20.0412   25.0309 H   0  0  0  0  0  0  0  0  0  0  0  0
  -18.3829   19.5576   25.6684 H   0  0  0  0  0  0  0  0  0  0  0  0
  -18.3466   14.5316   26.0398 C   0  0  0  0  0  0  0  0  0  0  0  0
  -19.3382   14.7356   27.0182 C   0  0  0  0  0  0  0  0  0  0  0  0
  -19.3627   15.6285   27.5872 H   0  0  0  0  0  0  0  0  0  0  0  0
  -20.2842   13.7459   27.2266 C   0  0  0  0  0  0  0  0  0  0  0  0
  -21.2977   13.7866   28.1303 O   0  0  0  0  0  0  0  0  0  0  0  0
  -21.9283   12.5113   27.8905 C   0  0  0  0  0  0  0  0  0  0  0  0
  -21.9094   11.9306   28.8190 H   0  0  0  0  0  0  0  0  0  0  0  0
  -22.9722   12.6842   27.6045 H   0  0  0  0  0  0  0  0  0  0  0  0
  -21.2867   11.7417   26.8517 O   0  0  0  0  0  0  0  0  0  0  0  0
  -20.2783   12.5821   26.4983 C   0  0  0  0  0  0  0  0  0  0  0  0
  -19.3244   12.3484   25.5180 C   0  0  0  0  0  0  0  0  0  0  0  0
  -19.3405   11.4470   24.9601 H   0  0  0  0  0  0  0  0  0  0  0  0
  -18.3597   13.3301   25.2882 C   0  0  0  0  0  0  0  0  0  0  0  0
  -17.6368   13.1721   24.5293 H   0  0  0  0  0  0  0  0  0  0  0  0
  1  2  2  0
  2  3  1  0
  2 13  1  0
  3  4  1  0
  3  5  1  0
  5  6  1  0
  5  7  1  0
  5 10  1  0
  7  8  1  0
  7  9  1  0
  7 10  1  0
 10 11  1  0
 10 12  1  0
 13 14  1  0
 13 25  2  0
 14 15  1  0
 14 16  2  0
 16 17  1  0
 16 22  1  0
 17 18  1  0
 18 19  1  0
 18 20  1  0
 18 21  1  0
 21 22  1  0
 22 23  2  0
 23 24  1  0
 23 25  1  0
 25 26  1  0
M  END
$$$$
