F600_76
     RDKit          3D

 16 16  0  0  0  0  0  0  0  0999 V2000
  -20.1499   12.2509   28.1183 O   0  0  0  0  0  0  0  0  0  0  0  0
  -20.8710   12.7432   26.9888 C   0  0  0  0  0  0  0  0  0  0  0  0
  -20.5618   13.7738   26.7756 H   0  0  0  0  0  0  0  0  0  0  0  0
  -20.6628   12.1228   26.1097 H   0  0  0  0  0  0  0  0  0  0  0  0
  -22.3221   12.7095   27.3290 C   0  0  0  0  0  0  0  0  0  0  0  0
  -22.8441   12.4879   28.9454 S   0  0  0  0  0  0  0  0  0  0  0  0
  -24.4297   12.5671   28.3348 C   0  0  0  0  0  0  0  0  0  0  0  0
  -25.4816   12.4553   29.1635 N   0  0  0  0  0  0  0  0  0  0  0  0
  -25.3724   12.3252   30.1614 H   0  0  0  0  0  0  0  0  0  0  0  0
  -26.4257   12.5019   28.7994 H   0  0  0  0  0  0  0  0  0  0  0  0
  -24.5350   12.7336   27.0536 N   0  0  0  0  0  0  0  0  0  0  0  0
  -23.2889   12.8167   26.4679 N   0  0  0  0  0  0  0  0  0  0  0  0
  -18.7499   12.2338   27.8781 C   0  0  0  0  0  0  0  0  0  0  0  0
  -18.2517   11.8493   28.7726 H   0  0  0  0  0  0  0  0  0  0  0  0
  -18.3822   13.2453   27.6814 H   0  0  0  0  0  0  0  0  0  0  0  0
  -18.5135   11.5754   27.0367 H   0  0  0  0  0  0  0  0  0  0  0  0
  1  2  1  0
  1 13  1  0
  2  3  1  0
  2  4  1  0
  2  5  1  0
  5  6  1  0
  5 12  2  0
  6  7  1  0
  7  8  1  0
  7 11  2  0
  8  9  1  0
  8 10  1  0
 11 12  1  0
 13 14  1  0
 13 15  1  0
 13 16  1  0
M  END
$$$$
