F600_19
     RDKit          3D

 16 16  0  0  0  0  0  0  0  0999 V2000
  -19.4395   14.6021   27.3761 O   0  0  0  0  0  0  0  0  0  0  0  0
  -18.1041   14.3486   26.9396 C   0  0  0  0  0  0  0  0  0  0  0  0
  -17.6825   13.5130   27.5117 H   0  0  0  0  0  0  0  0  0  0  0  0
  -18.0991   14.0864   25.8755 H   0  0  0  0  0  0  0  0  0  0  0  0
  -17.3062   15.5839   27.1843 C   0  0  0  0  0  0  0  0  0  0  0  0
  -17.8292   17.1034   26.5912 S   0  0  0  0  0  0  0  0  0  0  0  0
  -16.4156   17.7450   27.2866 C   0  0  0  0  0  0  0  0  0  0  0  0
  -16.1504   19.0590   27.1934 N   0  0  0  0  0  0  0  0  0  0  0  0
  -16.7699   19.7033   26.7182 H   0  0  0  0  0  0  0  0  0  0  0  0
  -15.3083   19.4406   27.6072 H   0  0  0  0  0  0  0  0  0  0  0  0
  -15.6439   16.8940   27.8870 N   0  0  0  0  0  0  0  0  0  0  0  0
  -16.1754   15.6227   27.8225 N   0  0  0  0  0  0  0  0  0  0  0  0
  -20.2442   13.4336   27.3035 C   0  0  0  0  0  0  0  0  0  0  0  0
  -21.2508   13.6867   27.6479 H   0  0  0  0  0  0  0  0  0  0  0  0
  -19.8407   12.6494   27.9510 H   0  0  0  0  0  0  0  0  0  0  0  0
  -20.3080   13.0758   26.2714 H   0  0  0  0  0  0  0  0  0  0  0  0
  1  2  1  0
  1 13  1  0
  2  3  1  0
  2  4  1  0
  2  5  1  0
  5  6  1  0
  5 12  2  0
  6  7  1  0
  7  8  1  0
  7 11  2  0
  8  9  1  0
  8 10  1  0
 11 12  1  0
 13 14  1  0
 13 15  1  0
 13 16  1  0
M  END
$$$$
