F5_51
     RDKit          3D

 21 21  0  0  0  0  0  0  0  0999 V2000
  -26.8900   15.0390   28.2863 Br  0  0  0  0  0  0  0  0  0  0  0  0
  -25.6352   13.9101   29.1417 C   0  0  0  0  0  0  0  0  0  0  0  0
  -24.3248   13.8483   28.6802 C   0  0  0  0  0  0  0  0  0  0  0  0
  -24.0171   14.4255   27.8503 H   0  0  0  0  0  0  0  0  0  0  0  0
  -23.4126   13.0113   29.3160 C   0  0  0  0  0  0  0  0  0  0  0  0
  -22.1399   12.9712   28.8090 O   0  0  0  0  0  0  0  0  0  0  0  0
  -21.9334   12.1795   27.6142 C   0  0  0  0  0  0  0  0  0  0  0  0
  -20.8612   12.0932   27.4459 H   0  0  0  0  0  0  0  0  0  0  0  0
  -22.4192   12.6863   26.7817 H   0  0  0  0  0  0  0  0  0  0  0  0
  -22.3729   11.1934   27.7613 H   0  0  0  0  0  0  0  0  0  0  0  0
  -23.7807   12.2385   30.4260 C   0  0  0  0  0  0  0  0  0  0  0  0
  -22.7958   11.3388   31.1733 C   0  0  0  0  0  0  0  0  0  0  0  0
  -21.8204   11.4368   30.7225 H   0  0  0  0  0  0  0  0  0  0  0  0
  -23.1348   10.3164   31.1927 H   0  0  0  0  0  0  0  0  0  0  0  0
  -22.6825   11.8169   32.6033 C   0  0  0  0  0  0  0  0  0  0  0  0
  -22.8281   13.0422   32.8145 O   0  0  0  0  0  0  0  0  0  0  0  0
  -22.4002   10.9720   33.4820 O   0  0  0  0  0  0  0  0  0  0  0  0
  -25.1003   12.3080   30.8695 C   0  0  0  0  0  0  0  0  0  0  0  0
  -25.4030   11.7136   31.6964 H   0  0  0  0  0  0  0  0  0  0  0  0
  -26.0228   13.1360   30.2344 C   0  0  0  0  0  0  0  0  0  0  0  0
  -27.0220   13.1733   30.5822 H   0  0  0  0  0  0  0  0  0  0  0  0
  1  2  1  0
  2  3  1  0
  2 20  2  0
  3  4  1  0
  3  5  2  0
  5  6  1  0
  5 11  1  0
  6  7  1  0
  7  8  1  0
  7  9  1  0
  7 10  1  0
 11 12  1  0
 11 18  2  0
 12 13  1  0
 12 14  1  0
 12 15  1  0
 15 16  1  0
 15 17  2  0
 18 19  1  0
 18 20  1  0
 20 21  1  0
M  END
$$$$
