F217_56
     RDKit          3D

 28 29  0  0  0  0  0  0  0  0999 V2000
  -19.6735   14.2049   27.7514 O   0  0  0  0  0  0  0  0  0  0  0  0
  -18.7654   14.7135   27.1150 C   0  0  0  0  0  0  0  0  0  0  0  0
  -18.0537   13.9688   26.2925 N   0  0  0  0  0  0  0  0  0  0  0  0
  -18.3054   12.9959   26.2345 H   0  0  0  0  0  0  0  0  0  0  0  0
  -17.2967   14.3576   25.7581 H   0  0  0  0  0  0  0  0  0  0  0  0
  -18.3813   16.1671   27.1932 C   0  0  0  0  0  0  0  0  0  0  0  0
  -18.9333   16.6310   28.0183 H   0  0  0  0  0  0  0  0  0  0  0  0
  -17.3136   16.2283   27.4360 H   0  0  0  0  0  0  0  0  0  0  0  0
  -18.6784   16.8814   25.8815 C   0  0  0  0  0  0  0  0  0  0  0  0
  -19.7572   16.9574   25.7076 H   0  0  0  0  0  0  0  0  0  0  0  0
  -18.2653   16.3330   25.0259 H   0  0  0  0  0  0  0  0  0  0  0  0
  -18.1142   18.2178   25.8597 N   0  0  0  0  0  0  0  0  0  0  0  0
  -18.7953   19.4045   26.0034 C   0  0  0  0  0  0  0  0  0  0  0  0
  -20.2671   19.4838   26.1999 C   0  0  0  0  0  0  0  0  0  0  0  0
  -20.5722   20.5179   26.3861 H   0  0  0  0  0  0  0  0  0  0  0  0
  -20.5804   18.8821   27.0575 H   0  0  0  0  0  0  0  0  0  0  0  0
  -20.7940   19.1335   25.3072 H   0  0  0  0  0  0  0  0  0  0  0  0
  -18.0017   20.4219   25.9478 N   0  0  0  0  0  0  0  0  0  0  0  0
  -16.7403   19.9025   25.7587 C   0  0  0  0  0  0  0  0  0  0  0  0
  -16.7956   18.5247   25.6996 C   0  0  0  0  0  0  0  0  0  0  0  0
  -15.6586   17.7249   25.5129 C   0  0  0  0  0  0  0  0  0  0  0  0
  -15.7291   16.6688   25.4669 H   0  0  0  0  0  0  0  0  0  0  0  0
  -14.4357   18.3660   25.3881 C   0  0  0  0  0  0  0  0  0  0  0  0
  -13.5525   17.7997   25.2459 H   0  0  0  0  0  0  0  0  0  0  0  0
  -14.3576   19.7761   25.4485 C   0  0  0  0  0  0  0  0  0  0  0  0
  -13.4138   20.2508   25.3507 H   0  0  0  0  0  0  0  0  0  0  0  0
  -15.5003   20.5429   25.6319 C   0  0  0  0  0  0  0  0  0  0  0  0
  -15.4529   21.5981   25.6767 H   0  0  0  0  0  0  0  0  0  0  0  0
  1  2  2  0
  2  3  1  0
  2  6  1  0
  3  4  1  0
  3  5  1  0
  6  7  1  0
  6  8  1  0
  6  9  1  0
  9 10  1  0
  9 11  1  0
  9 12  1  0
 12 13  1  0
 12 20  1  0
 13 14  1  0
 13 18  2  0
 14 15  1  0
 14 16  1  0
 14 17  1  0
 18 19  1  0
 19 20  1  0
 19 27  2  0
 20 21  2  0
 21 22  1  0
 21 23  1  0
 23 24  1  0
 23 25  2  0
 25 26  1  0
 25 27  1  0
 27 28  1  0
M  END
$$$$
