F275_64
     RDKit          3D

 20 20  0  0  0  0  0  0  0  0999 V2000
  -18.8575   14.9968   26.4699 S   0  0  0  0  0  0  0  0  0  0  0  0
  -18.6715   15.2640   25.0622 O   0  0  0  0  0  0  0  0  0  0  0  0
  -19.3962   15.9880   27.3759 O   0  0  0  0  0  0  0  0  0  0  0  0
  -17.3610   14.5234   27.0862 N   0  0  0  0  0  0  0  0  0  0  0  0
  -16.7124   15.3089   27.1740 H   0  0  0  0  0  0  0  0  0  0  0  0
  -17.4512   13.9627   27.9374 H   0  0  0  0  0  0  0  0  0  0  0  0
  -19.7935   13.5157   26.6418 C   0  0  0  0  0  0  0  0  0  0  0  0
  -19.4274   12.3626   25.9411 C   0  0  0  0  0  0  0  0  0  0  0  0
  -18.5983   12.3711   25.2818 H   0  0  0  0  0  0  0  0  0  0  0  0
  -20.1633   11.2018   26.1250 C   0  0  0  0  0  0  0  0  0  0  0  0
  -19.8097   10.0999   25.4474 F   0  0  0  0  0  0  0  0  0  0  0  0
  -21.2472   11.1361   26.9876 C   0  0  0  0  0  0  0  0  0  0  0  0
  -21.7804   10.2274   27.1011 H   0  0  0  0  0  0  0  0  0  0  0  0
  -21.6121   12.2772   27.6982 C   0  0  0  0  0  0  0  0  0  0  0  0
  -22.7496   12.2293   28.6761 C   0  0  0  0  0  0  0  0  0  0  0  0
  -23.5011   11.4949   28.3676 H   0  0  0  0  0  0  0  0  0  0  0  0
  -23.2516   13.2003   28.7385 H   0  0  0  0  0  0  0  0  0  0  0  0
  -22.3780   11.9594   29.6690 H   0  0  0  0  0  0  0  0  0  0  0  0
  -20.8798   13.4555   27.5257 C   0  0  0  0  0  0  0  0  0  0  0  0
  -21.1433   14.3247   28.0761 H   0  0  0  0  0  0  0  0  0  0  0  0
  1  2  2  0
  1  3  2  0
  1  4  1  0
  1  7  1  0
  4  5  1  0
  4  6  1  0
  7  8  1  0
  7 19  2  0
  8  9  1  0
  8 10  2  0
 10 11  1  0
 10 12  1  0
 12 13  1  0
 12 14  2  0
 14 15  1  0
 14 19  1  0
 15 16  1  0
 15 17  1  0
 15 18  1  0
 19 20  1  0
M  END
$$$$
