F529_33
     RDKit          3D

 23 23  0  0  0  0  0  0  0  0999 V2000
  -23.0738   11.4319   27.7009 S   0  0  0  0  0  0  0  0  0  0  0  0
  -22.5548   10.0736   27.6901 O   0  0  0  0  0  0  0  0  0  0  0  0
  -24.0000   11.8784   26.6778 O   0  0  0  0  0  0  0  0  0  0  0  0
  -21.6857   12.5360   27.7124 C   0  0  0  0  0  0  0  0  0  0  0  0
  -21.0326   12.2787   28.5489 H   0  0  0  0  0  0  0  0  0  0  0  0
  -22.0435   13.5635   27.8014 H   0  0  0  0  0  0  0  0  0  0  0  0
  -21.1473   12.4131   26.7709 H   0  0  0  0  0  0  0  0  0  0  0  0
  -23.8341   11.7205   29.2740 C   0  0  0  0  0  0  0  0  0  0  0  0
  -24.9077   12.6108   29.4495 C   0  0  0  0  0  0  0  0  0  0  0  0
  -25.4012   13.3189   28.3566 N   0  0  0  0  0  0  0  0  0  0  0  0
  -25.0292   13.0647   27.4301 H   0  0  0  0  0  0  0  0  0  0  0  0
  -26.3616   14.3940   28.4169 C   0  0  0  0  0  0  0  0  0  0  0  0
  -27.2961   14.0638   28.8829 H   0  0  0  0  0  0  0  0  0  0  0  0
  -26.5966   14.7307   27.4023 H   0  0  0  0  0  0  0  0  0  0  0  0
  -25.9615   15.2514   28.9668 H   0  0  0  0  0  0  0  0  0  0  0  0
  -25.4960   12.7632   30.7121 C   0  0  0  0  0  0  0  0  0  0  0  0
  -26.3226   13.4089   30.8466 H   0  0  0  0  0  0  0  0  0  0  0  0
  -24.9955   12.0635   31.8020 C   0  0  0  0  0  0  0  0  0  0  0  0
  -25.4358   12.1861   32.7583 H   0  0  0  0  0  0  0  0  0  0  0  0
  -23.9140   11.2033   31.6431 C   0  0  0  0  0  0  0  0  0  0  0  0
  -23.5282   10.6756   32.4789 H   0  0  0  0  0  0  0  0  0  0  0  0
  -23.3417   11.0328   30.3861 C   0  0  0  0  0  0  0  0  0  0  0  0
  -22.5206   10.3714   30.2709 H   0  0  0  0  0  0  0  0  0  0  0  0
  1  2  2  0
  1  3  2  0
  1  4  1  0
  1  8  1  0
  4  5  1  0
  4  6  1  0
  4  7  1  0
  8  9  1  0
  8 22  2  0
  9 10  1  0
  9 16  2  0
 10 11  1  0
 10 12  1  0
 12 13  1  0
 12 14  1  0
 12 15  1  0
 16 17  1  0
 16 18  1  0
 18 19  1  0
 18 20  2  0
 20 21  1  0
 20 22  1  0
 22 23  1  0
M  END
$$$$
