F760_80
     RDKit          3D

 17 18  0  0  0  0  0  0  0  0999 V2000
  -21.9181   11.1085   27.4430 Br  0  0  0  0  0  0  0  0  0  0  0  0
  -20.7019   12.3908   26.7706 C   0  0  0  0  0  0  0  0  0  0  0  0
  -20.0289   12.1501   25.5751 C   0  0  0  0  0  0  0  0  0  0  0  0
  -20.1822   11.2568   25.0287 H   0  0  0  0  0  0  0  0  0  0  0  0
  -19.1452   13.1211   25.1236 C   0  0  0  0  0  0  0  0  0  0  0  0
  -18.3729   13.0965   23.9718 N   0  0  0  0  0  0  0  0  0  0  0  0
  -18.3300   12.3521   23.2653 H   0  0  0  0  0  0  0  0  0  0  0  0
  -17.6295   14.2226   23.8593 C   0  0  0  0  0  0  0  0  0  0  0  0
  -16.8891   14.3850   22.9178 O   0  0  0  0  0  0  0  0  0  0  0  0
  -17.9131   15.1274   25.0561 C   0  0  0  0  0  0  0  0  0  0  0  0
  -16.9984   15.2770   25.6341 H   0  0  0  0  0  0  0  0  0  0  0  0
  -18.3450   16.0707   24.7136 H   0  0  0  0  0  0  0  0  0  0  0  0
  -18.9127   14.2999   25.8031 C   0  0  0  0  0  0  0  0  0  0  0  0
  -19.5859   14.5414   26.9958 C   0  0  0  0  0  0  0  0  0  0  0  0
  -19.4232   15.4411   27.5339 H   0  0  0  0  0  0  0  0  0  0  0  0
  -20.4815   13.5829   27.4775 C   0  0  0  0  0  0  0  0  0  0  0  0
  -21.0003   13.7556   28.3849 H   0  0  0  0  0  0  0  0  0  0  0  0
  1  2  1  0
  2  3  1  0
  2 16  2  0
  3  4  1  0
  3  5  2  0
  5  6  1  0
  5 13  1  0
  6  7  1  0
  6  8  1  0
  8  9  2  0
  8 10  1  0
 10 11  1  0
 10 12  1  0
 10 13  1  0
 13 14  2  0
 14 15  1  0
 14 16  1  0
 16 17  1  0
M  END
$$$$
