F5_28
     RDKit          3D

 21 21  0  0  0  0  0  0  0  0999 V2000
  -19.1567   12.3747   27.8996 Br  0  0  0  0  0  0  0  0  0  0  0  0
  -21.0436   12.4222   28.0345 C   0  0  0  0  0  0  0  0  0  0  0  0
  -21.6639   12.1245   29.2431 C   0  0  0  0  0  0  0  0  0  0  0  0
  -21.0925   11.8676   30.0940 H   0  0  0  0  0  0  0  0  0  0  0  0
  -23.0525   12.1597   29.3281 C   0  0  0  0  0  0  0  0  0  0  0  0
  -23.6149   11.8376   30.5357 O   0  0  0  0  0  0  0  0  0  0  0  0
  -23.3005   10.5328   31.0795 C   0  0  0  0  0  0  0  0  0  0  0  0
  -23.9568   10.3529   31.9295 H   0  0  0  0  0  0  0  0  0  0  0  0
  -22.2559   10.5347   31.3871 H   0  0  0  0  0  0  0  0  0  0  0  0
  -23.4639    9.7787   30.3103 H   0  0  0  0  0  0  0  0  0  0  0  0
  -23.8436   12.5062   28.2239 C   0  0  0  0  0  0  0  0  0  0  0  0
  -25.3686   12.5937   28.2913 C   0  0  0  0  0  0  0  0  0  0  0  0
  -25.6870   12.3865   29.3011 H   0  0  0  0  0  0  0  0  0  0  0  0
  -25.8318   11.9358   27.5750 H   0  0  0  0  0  0  0  0  0  0  0  0
  -25.7936   14.0075   27.9647 C   0  0  0  0  0  0  0  0  0  0  0  0
  -26.0176   14.2790   26.7633 O   0  0  0  0  0  0  0  0  0  0  0  0
  -25.8469   14.8339   28.9027 O   0  0  0  0  0  0  0  0  0  0  0  0
  -23.2043   12.7940   27.0191 C   0  0  0  0  0  0  0  0  0  0  0  0
  -23.7883   13.0382   26.1660 H   0  0  0  0  0  0  0  0  0  0  0  0
  -21.8155   12.7530   26.9218 C   0  0  0  0  0  0  0  0  0  0  0  0
  -21.3470   12.9706   25.9978 H   0  0  0  0  0  0  0  0  0  0  0  0
  1  2  1  0
  2  3  1  0
  2 20  2  0
  3  4  1  0
  3  5  2  0
  5  6  1  0
  5 11  1  0
  6  7  1  0
  7  8  1  0
  7  9  1  0
  7 10  1  0
 11 12  1  0
 11 18  2  0
 12 13  1  0
 12 14  1  0
 12 15  1  0
 15 16  1  0
 15 17  2  0
 18 19  1  0
 18 20  1  0
 20 21  1  0
M  END
$$$$
