F205_19
     RDKit          3D

 20 20  0  0  0  0  0  0  0  0999 V2000
  -16.5856   15.0056   24.8206 O   0  0  0  0  0  0  0  0  0  0  0  0
  -17.5405   14.2237   24.9967 C   0  0  0  0  0  0  0  0  0  0  0  0
  -18.1994   14.2227   26.2412 N   0  0  0  0  0  0  0  0  0  0  0  0
  -17.7499   15.1351   27.2883 C   0  0  0  0  0  0  0  0  0  0  0  0
  -18.5769   15.7909   27.5768 H   0  0  0  0  0  0  0  0  0  0  0  0
  -16.9192   15.7667   26.9612 H   0  0  0  0  0  0  0  0  0  0  0  0
  -17.4115   14.5534   28.1519 H   0  0  0  0  0  0  0  0  0  0  0  0
  -19.2789   13.3440   26.4878 C   0  0  0  0  0  0  0  0  0  0  0  0
  -19.9470   13.3454   27.8346 C   0  0  0  0  0  0  0  0  0  0  0  0
  -19.2330   13.0825   28.6220 H   0  0  0  0  0  0  0  0  0  0  0  0
  -20.7640   12.6173   27.8840 H   0  0  0  0  0  0  0  0  0  0  0  0
  -20.3768   14.3269   28.0557 H   0  0  0  0  0  0  0  0  0  0  0  0
  -19.7117   12.5118   25.4928 C   0  0  0  0  0  0  0  0  0  0  0  0
  -20.5242   11.8551   25.6693 H   0  0  0  0  0  0  0  0  0  0  0  0
  -19.0923   12.4921   24.2141 C   0  0  0  0  0  0  0  0  0  0  0  0
  -19.4455   11.8315   23.4651 H   0  0  0  0  0  0  0  0  0  0  0  0
  -18.0340   13.3159   23.9691 C   0  0  0  0  0  0  0  0  0  0  0  0
  -17.3787   13.3451   22.7630 N   0  0  0  0  0  0  0  0  0  0  0  0
  -17.6574   12.7487   21.9974 H   0  0  0  0  0  0  0  0  0  0  0  0
  -16.6000   13.9930   22.6688 H   0  0  0  0  0  0  0  0  0  0  0  0
  1  2  2  0
  2  3  1  0
  2 17  1  0
  3  4  1  0
  3  8  1  0
  4  5  1  0
  4  6  1  0
  4  7  1  0
  8  9  1  0
  8 13  2  0
  9 10  1  0
  9 11  1  0
  9 12  1  0
 13 14  1  0
 13 15  1  0
 15 16  1  0
 15 17  2  0
 17 18  1  0
 18 19  1  0
 18 20  1  0
M  END
$$$$
