F618_56
     RDKit          3D

 26 26  0  0  0  0  0  0  0  0999 V2000
  -19.4068   12.1624   29.0808 F   0  0  0  0  0  0  0  0  0  0  0  0
  -20.5051   12.4081   28.3495 C   0  0  0  0  0  0  0  0  0  0  0  0
  -20.4339   12.7849   26.9958 C   0  0  0  0  0  0  0  0  0  0  0  0
  -19.2092   12.8987   26.3186 N   0  0  0  0  0  0  0  0  0  0  0  0
  -18.9280   14.1731   25.6164 C   0  0  0  0  0  0  0  0  0  0  0  0
  -18.2471   13.9199   24.2585 C   0  0  0  0  0  0  0  0  0  0  0  0
  -17.1649   13.8103   24.3879 H   0  0  0  0  0  0  0  0  0  0  0  0
  -18.4135   14.7491   23.5639 H   0  0  0  0  0  0  0  0  0  0  0  0
  -18.7349   12.7324   23.6374 O   0  0  0  0  0  0  0  0  0  0  0  0
  -18.1250   12.5703   22.8954 H   0  0  0  0  0  0  0  0  0  0  0  0
  -18.1103   15.1456   26.4752 C   0  0  0  0  0  0  0  0  0  0  0  0
  -18.0840   16.1337   26.0018 H   0  0  0  0  0  0  0  0  0  0  0  0
  -17.0715   14.8265   26.6007 H   0  0  0  0  0  0  0  0  0  0  0  0
  -18.5563   15.2630   27.4677 H   0  0  0  0  0  0  0  0  0  0  0  0
  -18.2523   11.8017   26.3187 C   0  0  0  0  0  0  0  0  0  0  0  0
  -17.7365   11.7374   27.2824 H   0  0  0  0  0  0  0  0  0  0  0  0
  -17.4886   11.9142   25.5435 H   0  0  0  0  0  0  0  0  0  0  0  0
  -18.7437   10.8460   26.0999 H   0  0  0  0  0  0  0  0  0  0  0  0
  -21.5425   13.0416   26.2846 N   0  0  0  0  0  0  0  0  0  0  0  0
  -22.7315   12.9478   26.8930 C   0  0  0  0  0  0  0  0  0  0  0  0
  -23.5962   13.1589   26.3179 H   0  0  0  0  0  0  0  0  0  0  0  0
  -22.8615   12.5875   28.2357 C   0  0  0  0  0  0  0  0  0  0  0  0
  -23.8223   12.5262   28.6762 H   0  0  0  0  0  0  0  0  0  0  0  0
  -21.7252   12.3077   28.9904 C   0  0  0  0  0  0  0  0  0  0  0  0
  -21.7848   12.0284   30.0103 H   0  0  0  0  0  0  0  0  0  0  0  0
  -19.8712   14.7026   25.4256 H   0  0  0  0  0  0  0  0  0  0  0  0
  1  2  1  0
  2  3  1  0
  2 24  2  0
  3  4  1  0
  3 19  2  0
  4  5  1  0
  4 15  1  0
  5  6  1  0
  5 11  1  0
  5 26  1  0
  6  7  1  0
  6  8  1  0
  6  9  1  0
  9 10  1  0
 11 12  1  0
 11 13  1  0
 11 14  1  0
 15 16  1  0
 15 17  1  0
 15 18  1  0
 19 20  1  0
 20 21  1  0
 20 22  2  0
 22 23  1  0
 22 24  1  0
 24 25  1  0
M  END
$$$$
