F584_21
     RDKit          3D

 27 28  0  0  0  0  0  0  0  0999 V2000
  -24.1704   14.9365   31.8051 O   0  0  0  0  0  0  0  0  0  0  0  0
  -23.5041   16.1514   32.1212 C   0  0  0  0  0  0  0  0  0  0  0  0
  -22.9090   15.9808   33.0240 H   0  0  0  0  0  0  0  0  0  0  0  0
  -24.2211   16.9494   32.3428 H   0  0  0  0  0  0  0  0  0  0  0  0
  -22.8163   16.4453   31.3216 H   0  0  0  0  0  0  0  0  0  0  0  0
  -25.0041   14.9108   30.7068 C   0  0  0  0  0  0  0  0  0  0  0  0
  -24.5589   14.1476   29.6180 C   0  0  0  0  0  0  0  0  0  0  0  0
  -25.3642   14.1171   28.4696 C   0  0  0  0  0  0  0  0  0  0  0  0
  -25.0845   13.4524   27.2518 N   0  0  0  0  0  0  0  0  0  0  0  0
  -25.8456   13.4609   26.5621 H   0  0  0  0  0  0  0  0  0  0  0  0
  -24.0000   12.7947   26.7632 C   0  0  0  0  0  0  0  0  0  0  0  0
  -24.1616   12.3903   25.6353 O   0  0  0  0  0  0  0  0  0  0  0  0
  -22.7165   12.6666   27.5069 C   0  0  0  0  0  0  0  0  0  0  0  0
  -22.1168   11.9073   26.9902 H   0  0  0  0  0  0  0  0  0  0  0  0
  -22.1686   13.6137   27.4492 H   0  0  0  0  0  0  0  0  0  0  0  0
  -22.9583   12.2165   28.9244 C   0  0  0  0  0  0  0  0  0  0  0  0
  -23.7642   11.4741   28.9837 H   0  0  0  0  0  0  0  0  0  0  0  0
  -22.0482   11.7309   29.2960 H   0  0  0  0  0  0  0  0  0  0  0  0
  -23.2540   13.4063   29.8174 C   0  0  0  0  0  0  0  0  0  0  0  0
  -22.4345   14.1336   29.7481 H   0  0  0  0  0  0  0  0  0  0  0  0
  -23.2339   13.0015   30.8377 H   0  0  0  0  0  0  0  0  0  0  0  0
  -26.5684   14.8230   28.4157 C   0  0  0  0  0  0  0  0  0  0  0  0
  -27.1646   14.7889   27.5404 H   0  0  0  0  0  0  0  0  0  0  0  0
  -26.9906   15.5683   29.5084 C   0  0  0  0  0  0  0  0  0  0  0  0
  -27.9059   16.1007   29.4662 H   0  0  0  0  0  0  0  0  0  0  0  0
  -26.2115   15.6144   30.6588 C   0  0  0  0  0  0  0  0  0  0  0  0
  -26.5400   16.1840   31.4871 H   0  0  0  0  0  0  0  0  0  0  0  0
  1  2  1  0
  1  6  1  0
  2  3  1  0
  2  4  1  0
  2  5  1  0
  6  7  1  0
  6 26  2  0
  7  8  2  0
  7 19  1  0
  8  9  1  0
  8 22  1  0
  9 10  1  0
  9 11  1  0
 11 12  2  0
 11 13  1  0
 13 14  1  0
 13 15  1  0
 13 16  1  0
 16 17  1  0
 16 18  1  0
 16 19  1  0
 19 20  1  0
 19 21  1  0
 22 23  1  0
 22 24  2  0
 24 25  1  0
 24 26  1  0
 26 27  1  0
M  END
$$$$
