F229_34
     RDKit          3D

 27 28  0  0  0  0  0  0  0  0999 V2000
  -19.4235   18.0717   27.3582 F   0  0  0  0  0  0  0  0  0  0  0  0
  -18.3572   18.6922   26.8285 C   0  0  0  0  0  0  0  0  0  0  0  0
  -17.3792   17.9694   26.1161 C   0  0  0  0  0  0  0  0  0  0  0  0
  -17.4363   16.5979   25.9035 N   0  0  0  0  0  0  0  0  0  0  0  0
  -16.5925   16.1134   25.6213 H   0  0  0  0  0  0  0  0  0  0  0  0
  -18.6319   15.7893   26.0662 C   0  0  0  0  0  0  0  0  0  0  0  0
  -18.7969   15.5956   27.1332 H   0  0  0  0  0  0  0  0  0  0  0  0
  -19.5041   16.3433   25.6991 H   0  0  0  0  0  0  0  0  0  0  0  0
  -18.5817   14.4738   25.3507 C   0  0  0  0  0  0  0  0  0  0  0  0
  -18.8560   13.2177   25.8878 C   0  0  0  0  0  0  0  0  0  0  0  0
  -19.2507   12.8719   27.2745 C   0  0  0  0  0  0  0  0  0  0  0  0
  -20.1156   13.4663   27.5875 H   0  0  0  0  0  0  0  0  0  0  0  0
  -18.4261   13.0734   27.9663 H   0  0  0  0  0  0  0  0  0  0  0  0
  -19.5199   11.8146   27.3679 H   0  0  0  0  0  0  0  0  0  0  0  0
  -18.7263   12.2865   24.9853 N   0  0  0  0  0  0  0  0  0  0  0  0
  -18.3696   12.9406   23.8529 N   0  0  0  0  0  0  0  0  0  0  0  0
  -18.1946   12.4530   22.9543 H   0  0  0  0  0  0  0  0  0  0  0  0
  -18.2780   14.2719   24.0475 C   0  0  0  0  0  0  0  0  0  0  0  0
  -18.0149   14.9428   23.2724 H   0  0  0  0  0  0  0  0  0  0  0  0
  -16.2957   18.6663   25.5782 C   0  0  0  0  0  0  0  0  0  0  0  0
  -15.5571   18.1462   25.0268 H   0  0  0  0  0  0  0  0  0  0  0  0
  -16.1880   20.0433   25.7660 C   0  0  0  0  0  0  0  0  0  0  0  0
  -15.3610   20.5672   25.3579 H   0  0  0  0  0  0  0  0  0  0  0  0
  -17.1595   20.7437   26.4848 C   0  0  0  0  0  0  0  0  0  0  0  0
  -17.0667   21.7912   26.6208 H   0  0  0  0  0  0  0  0  0  0  0  0
  -18.2523   20.0630   27.0177 C   0  0  0  0  0  0  0  0  0  0  0  0
  -19.0000   20.5837   27.5597 H   0  0  0  0  0  0  0  0  0  0  0  0
  1  2  1  0
  2  3  1  0
  2 26  2  0
  3  4  1  0
  3 20  2  0
  4  5  1  0
  4  6  1  0
  6  7  1  0
  6  8  1  0
  6  9  1  0
  9 10  1  0
  9 18  2  0
 10 11  1  0
 10 15  2  0
 11 12  1  0
 11 13  1  0
 11 14  1  0
 15 16  1  0
 16 17  1  0
 16 18  1  0
 18 19  1  0
 20 21  1  0
 20 22  1  0
 22 23  1  0
 22 24  2  0
 24 25  1  0
 24 26  1  0
 26 27  1  0
M  END
$$$$
