F529_51
     RDKit          3D

 23 23  0  0  0  0  0  0  0  0999 V2000
  -19.8848   12.2367   27.3320 S   0  0  0  0  0  0  0  0  0  0  0  0
  -20.5829   11.0199   26.9490 O   0  0  0  0  0  0  0  0  0  0  0  0
  -18.9503   12.2358   28.4413 O   0  0  0  0  0  0  0  0  0  0  0  0
  -21.1090   13.4828   27.6391 C   0  0  0  0  0  0  0  0  0  0  0  0
  -21.7554   13.5710   26.7635 H   0  0  0  0  0  0  0  0  0  0  0  0
  -20.6120   14.4313   27.8514 H   0  0  0  0  0  0  0  0  0  0  0  0
  -21.6980   13.1732   28.5044 H   0  0  0  0  0  0  0  0  0  0  0  0
  -19.0274   12.8527   25.9103 C   0  0  0  0  0  0  0  0  0  0  0  0
  -18.0662   13.8757   25.9842 C   0  0  0  0  0  0  0  0  0  0  0  0
  -17.7704   14.4554   27.2154 N   0  0  0  0  0  0  0  0  0  0  0  0
  -18.1951   14.0227   28.0484 H   0  0  0  0  0  0  0  0  0  0  0  0
  -16.9482   15.6237   27.4175 C   0  0  0  0  0  0  0  0  0  0  0  0
  -15.9399   15.4717   27.0178 H   0  0  0  0  0  0  0  0  0  0  0  0
  -16.8544   15.8229   28.4897 H   0  0  0  0  0  0  0  0  0  0  0  0
  -17.3963   16.5078   26.9536 H   0  0  0  0  0  0  0  0  0  0  0  0
  -17.3894   14.2900   24.8293 C   0  0  0  0  0  0  0  0  0  0  0  0
  -16.6444   15.0386   24.8811 H   0  0  0  0  0  0  0  0  0  0  0  0
  -17.6936   13.7173   23.6015 C   0  0  0  0  0  0  0  0  0  0  0  0
  -17.1872   14.0375   22.7272 H   0  0  0  0  0  0  0  0  0  0  0  0
  -18.6650   12.7255   23.5146 C   0  0  0  0  0  0  0  0  0  0  0  0
  -18.9013   12.2948   22.5742 H   0  0  0  0  0  0  0  0  0  0  0  0
  -19.3231   12.2962   24.6633 C   0  0  0  0  0  0  0  0  0  0  0  0
  -20.0590   11.5359   24.5908 H   0  0  0  0  0  0  0  0  0  0  0  0
  1  2  2  0
  1  3  2  0
  1  4  1  0
  1  8  1  0
  4  5  1  0
  4  6  1  0
  4  7  1  0
  8  9  1  0
  8 22  2  0
  9 10  1  0
  9 16  2  0
 10 11  1  0
 10 12  1  0
 12 13  1  0
 12 14  1  0
 12 15  1  0
 16 17  1  0
 16 18  1  0
 18 19  1  0
 18 20  2  0
 20 21  1  0
 20 22  1  0
 22 23  1  0
M  END
$$$$
