F488_33
     RDKit          3D

 39 40  0  0  0  0  0  0  0  0999 V2000
  -22.3955   10.7959   27.1661 O   0  0  0  0  0  0  0  0  0  0  0  0
  -21.6500   11.5610   27.7696 C   0  0  0  0  0  0  0  0  0  0  0  0
  -22.0578   12.1325   29.1267 C   0  0  0  0  0  0  0  0  0  0  0  0
  -23.0073   11.6596   29.4045 H   0  0  0  0  0  0  0  0  0  0  0  0
  -21.3411   11.8232   29.8973 H   0  0  0  0  0  0  0  0  0  0  0  0
  -22.2571   13.5360   29.1543 O   0  0  0  0  0  0  0  0  0  0  0  0
  -23.5356   14.0250   29.0666 C   0  0  0  0  0  0  0  0  0  0  0  0
  -24.4232   13.7986   28.0154 C   0  0  0  0  0  0  0  0  0  0  0  0
  -24.1432   13.2134   27.1789 H   0  0  0  0  0  0  0  0  0  0  0  0
  -25.6973   14.3551   28.0666 C   0  0  0  0  0  0  0  0  0  0  0  0
  -26.3776   14.1805   27.2719 H   0  0  0  0  0  0  0  0  0  0  0  0
  -26.0832   15.1412   29.1527 C   0  0  0  0  0  0  0  0  0  0  0  0
  -27.4712   15.7123   29.2179 C   0  0  0  0  0  0  0  0  0  0  0  0
  -28.1395   15.0091   29.7246 H   0  0  0  0  0  0  0  0  0  0  0  0
  -27.4784   16.6625   29.7606 H   0  0  0  0  0  0  0  0  0  0  0  0
  -27.8603   15.9090   28.2138 H   0  0  0  0  0  0  0  0  0  0  0  0
  -25.1813   15.3688   30.1933 C   0  0  0  0  0  0  0  0  0  0  0  0
  -25.4645   15.9689   31.0188 H   0  0  0  0  0  0  0  0  0  0  0  0
  -23.9057   14.8149   30.1501 C   0  0  0  0  0  0  0  0  0  0  0  0
  -23.2161   14.9934   30.9342 H   0  0  0  0  0  0  0  0  0  0  0  0
  -20.4661   11.9095   27.2022 N   0  0  0  0  0  0  0  0  0  0  0  0
  -20.0146   11.2461   25.9705 C   0  0  0  0  0  0  0  0  0  0  0  0
  -19.1549   10.6221   26.2466 H   0  0  0  0  0  0  0  0  0  0  0  0
  -20.7793   10.5757   25.5672 H   0  0  0  0  0  0  0  0  0  0  0  0
  -19.6056   12.2527   24.8921 C   0  0  0  0  0  0  0  0  0  0  0  0
  -20.4560   12.8589   24.5627 H   0  0  0  0  0  0  0  0  0  0  0  0
  -19.1543   11.7436   24.0355 H   0  0  0  0  0  0  0  0  0  0  0  0
  -18.5634   13.2070   25.4546 N   0  0  0  0  0  0  0  0  0  0  0  0
  -17.7522   12.6434   25.7465 H   0  0  0  0  0  0  0  0  0  0  0  0
  -18.0679   14.1690   24.4145 C   0  0  0  0  0  0  0  0  0  0  0  0
  -17.2860   14.7843   24.8677 H   0  0  0  0  0  0  0  0  0  0  0  0
  -17.6525   13.5878   23.5865 H   0  0  0  0  0  0  0  0  0  0  0  0
  -18.9061   14.7849   24.0790 H   0  0  0  0  0  0  0  0  0  0  0  0
  -19.0909   13.9247   26.6850 C   0  0  0  0  0  0  0  0  0  0  0  0
  -19.9308   14.5477   26.3592 H   0  0  0  0  0  0  0  0  0  0  0  0
  -18.2852   14.5588   27.0674 H   0  0  0  0  0  0  0  0  0  0  0  0
  -19.5345   12.9069   27.7465 C   0  0  0  0  0  0  0  0  0  0  0  0
  -19.9726   13.4559   28.5815 H   0  0  0  0  0  0  0  0  0  0  0  0
  -18.6654   12.3574   28.1288 H   0  0  0  0  0  0  0  0  0  0  0  0
  1  2  2  0
  2  3  1  0
  2 21  1  0
  3  4  1  0
  3  5  1  0
  3  6  1  0
  6  7  1  0
  7  8  1  0
  7 19  2  0
  8  9  1  0
  8 10  2  0
 10 11  1  0
 10 12  1  0
 12 13  1  0
 12 17  2  0
 13 14  1  0
 13 15  1  0
 13 16  1  0
 17 18  1  0
 17 19  1  0
 19 20  1  0
 21 22  1  0
 21 37  1  0
 22 23  1  0
 22 24  1  0
 22 25  1  0
 25 26  1  0
 25 27  1  0
 25 28  1  0
 28 29  1  0
 28 30  1  0
 28 34  1  0
 30 31  1  0
 30 32  1  0
 30 33  1  0
 34 35  1  0
 34 36  1  0
 34 37  1  0
 37 38  1  0
 37 39  1  0
M  END
$$$$
