F199_56
     RDKit          3D

 25 26  0  0  0  0  0  0  0  0999 V2000
  -22.6319   13.1407   27.2959 O   0  0  0  0  0  0  0  0  0  0  0  0
  -22.3441   12.6778   28.3976 C   0  0  0  0  0  0  0  0  0  0  0  0
  -21.0321   12.3841   28.6793 N   0  0  0  0  0  0  0  0  0  0  0  0
  -20.8860   12.0017   29.6240 H   0  0  0  0  0  0  0  0  0  0  0  0
  -19.9342   12.5432   27.8529 C   0  0  0  0  0  0  0  0  0  0  0  0
  -20.0312   13.1263   26.6408 C   0  0  0  0  0  0  0  0  0  0  0  0
  -20.8521   13.5381   26.1169 H   0  0  0  0  0  0  0  0  0  0  0  0
  -18.7705   13.1007   26.1419 N   0  0  0  0  0  0  0  0  0  0  0  0
  -18.3120   13.5978   24.8705 C   0  0  0  0  0  0  0  0  0  0  0  0
  -19.1575   14.0079   24.3130 H   0  0  0  0  0  0  0  0  0  0  0  0
  -17.8660   12.7686   24.3157 H   0  0  0  0  0  0  0  0  0  0  0  0
  -17.5710   14.3800   25.0529 H   0  0  0  0  0  0  0  0  0  0  0  0
  -17.8871   12.5217   26.9982 N   0  0  0  0  0  0  0  0  0  0  0  0
  -18.6006   12.1827   28.0428 C   0  0  0  0  0  0  0  0  0  0  0  0
  -18.1989   11.7037   28.8979 H   0  0  0  0  0  0  0  0  0  0  0  0
  -23.2957   12.4076   29.4563 C   0  0  0  0  0  0  0  0  0  0  0  0
  -24.5594   12.7390   29.3636 N   0  0  0  0  0  0  0  0  0  0  0  0
  -25.1503   12.3556   30.4916 O   0  0  0  0  0  0  0  0  0  0  0  0
  -24.2667   11.7776   31.3115 C   0  0  0  0  0  0  0  0  0  0  0  0
  -24.7684   11.2968   32.6084 C   0  0  0  0  0  0  0  0  0  0  0  0
  -23.9638   10.8508   33.2008 H   0  0  0  0  0  0  0  0  0  0  0  0
  -25.5439   10.5389   32.4619 H   0  0  0  0  0  0  0  0  0  0  0  0
  -25.1978   12.1218   33.1844 H   0  0  0  0  0  0  0  0  0  0  0  0
  -23.0799   11.7930   30.6912 C   0  0  0  0  0  0  0  0  0  0  0  0
  -22.1618   11.4148   31.0595 H   0  0  0  0  0  0  0  0  0  0  0  0
  1  2  2  0
  2  3  1  0
  2 16  1  0
  3  4  1  0
  3  5  1  0
  5  6  2  0
  5 14  1  0
  6  7  1  0
  6  8  1  0
  8  9  1  0
  8 13  1  0
  9 10  1  0
  9 11  1  0
  9 12  1  0
 13 14  2  0
 14 15  1  0
 16 17  2  0
 16 24  1  0
 17 18  1  0
 18 19  1  0
 19 20  1  0
 19 24  2  0
 20 21  1  0
 20 22  1  0
 20 23  1  0
 24 25  1  0
M  END
$$$$
