F488_18
     RDKit          3D

 39 40  0  0  0  0  0  0  0  0999 V2000
  -21.4715   10.1817   26.6861 O   0  0  0  0  0  0  0  0  0  0  0  0
  -21.3847   11.2173   27.3385 C   0  0  0  0  0  0  0  0  0  0  0  0
  -22.5181   11.6451   28.2695 C   0  0  0  0  0  0  0  0  0  0  0  0
  -23.1494   10.7642   28.4365 H   0  0  0  0  0  0  0  0  0  0  0  0
  -22.1173   11.9082   29.2561 H   0  0  0  0  0  0  0  0  0  0  0  0
  -23.3515   12.6775   27.7696 O   0  0  0  0  0  0  0  0  0  0  0  0
  -24.3598   13.1583   28.5655 C   0  0  0  0  0  0  0  0  0  0  0  0
  -24.7321   12.6441   29.8069 C   0  0  0  0  0  0  0  0  0  0  0  0
  -24.2378   11.8054   30.2227 H   0  0  0  0  0  0  0  0  0  0  0  0
  -25.7740   13.2424   30.5085 C   0  0  0  0  0  0  0  0  0  0  0  0
  -26.0565   12.8581   31.4558 H   0  0  0  0  0  0  0  0  0  0  0  0
  -26.4489   14.3401   29.9736 C   0  0  0  0  0  0  0  0  0  0  0  0
  -27.5513   15.0022   30.7503 C   0  0  0  0  0  0  0  0  0  0  0  0
  -27.1378   15.7960   31.3802 H   0  0  0  0  0  0  0  0  0  0  0  0
  -28.2982   15.4354   30.0780 H   0  0  0  0  0  0  0  0  0  0  0  0
  -28.0692   14.2785   31.3878 H   0  0  0  0  0  0  0  0  0  0  0  0
  -26.0732   14.8383   28.7252 C   0  0  0  0  0  0  0  0  0  0  0  0
  -26.5840   15.6678   28.3096 H   0  0  0  0  0  0  0  0  0  0  0  0
  -25.0315   14.2462   28.0178 C   0  0  0  0  0  0  0  0  0  0  0  0
  -24.7502   14.6167   27.0661 H   0  0  0  0  0  0  0  0  0  0  0  0
  -20.2749   11.9886   27.2033 N   0  0  0  0  0  0  0  0  0  0  0  0
  -19.1286   11.5018   26.4221 C   0  0  0  0  0  0  0  0  0  0  0  0
  -18.3221   11.3013   27.1390 H   0  0  0  0  0  0  0  0  0  0  0  0
  -19.3523   10.5557   25.9203 H   0  0  0  0  0  0  0  0  0  0  0  0
  -18.6635   12.5265   25.3843 C   0  0  0  0  0  0  0  0  0  0  0  0
  -19.4327   12.7117   24.6272 H   0  0  0  0  0  0  0  0  0  0  0  0
  -17.7361   12.2008   24.9042 H   0  0  0  0  0  0  0  0  0  0  0  0
  -18.3785   13.8536   26.0705 N   0  0  0  0  0  0  0  0  0  0  0  0
  -17.6400   13.6891   26.7694 H   0  0  0  0  0  0  0  0  0  0  0  0
  -17.8431   14.8753   25.1101 C   0  0  0  0  0  0  0  0  0  0  0  0
  -17.6082   15.7809   25.6756 H   0  0  0  0  0  0  0  0  0  0  0  0
  -16.9331   14.4707   24.6583 H   0  0  0  0  0  0  0  0  0  0  0  0
  -18.6029   15.0740   24.3501 H   0  0  0  0  0  0  0  0  0  0  0  0
  -19.6059   14.3586   26.8092 C   0  0  0  0  0  0  0  0  0  0  0  0
  -20.3739   14.5635   26.0556 H   0  0  0  0  0  0  0  0  0  0  0  0
  -19.3265   15.2873   27.3162 H   0  0  0  0  0  0  0  0  0  0  0  0
  -20.0884   13.3086   27.8213 C   0  0  0  0  0  0  0  0  0  0  0  0
  -21.0091   13.6748   28.2780 H   0  0  0  0  0  0  0  0  0  0  0  0
  -19.3466   13.1857   28.6201 H   0  0  0  0  0  0  0  0  0  0  0  0
  1  2  2  0
  2  3  1  0
  2 21  1  0
  3  4  1  0
  3  5  1  0
  3  6  1  0
  6  7  1  0
  7  8  1  0
  7 19  2  0
  8  9  1  0
  8 10  2  0
 10 11  1  0
 10 12  1  0
 12 13  1  0
 12 17  2  0
 13 14  1  0
 13 15  1  0
 13 16  1  0
 17 18  1  0
 17 19  1  0
 19 20  1  0
 21 22  1  0
 21 37  1  0
 22 23  1  0
 22 24  1  0
 22 25  1  0
 25 26  1  0
 25 27  1  0
 25 28  1  0
 28 29  1  0
 28 30  1  0
 28 34  1  0
 30 31  1  0
 30 32  1  0
 30 33  1  0
 34 35  1  0
 34 36  1  0
 34 37  1  0
 37 38  1  0
 37 39  1  0
M  END
$$$$
