F579_30
     RDKit          3D

 29 31  0  0  0  0  0  0  0  0999 V2000
  -21.4586   12.8232   25.7982 O   0  0  0  0  0  0  0  0  0  0  0  0
  -20.7072   12.3478   26.6198 C   0  0  0  0  0  0  0  0  0  0  0  0
  -21.0936   12.1388   27.9086 N   0  0  0  0  0  0  0  0  0  0  0  0
  -20.3867   11.7536   28.5405 H   0  0  0  0  0  0  0  0  0  0  0  0
  -22.3056   12.3731   28.5148 C   0  0  0  0  0  0  0  0  0  0  0  0
  -22.5993   11.9545   30.1749 S   0  0  0  0  0  0  0  0  0  0  0  0
  -24.2005   12.5830   29.9945 C   0  0  0  0  0  0  0  0  0  0  0  0
  -24.3724   13.0547   28.6938 C   0  0  0  0  0  0  0  0  0  0  0  0
  -23.2727   12.9276   27.8541 N   0  0  0  0  0  0  0  0  0  0  0  0
  -25.6100   13.6118   28.3317 C   0  0  0  0  0  0  0  0  0  0  0  0
  -25.7466   13.9706   27.3455 H   0  0  0  0  0  0  0  0  0  0  0  0
  -26.6369   13.6855   29.2619 C   0  0  0  0  0  0  0  0  0  0  0  0
  -27.5679   14.1065   28.9852 H   0  0  0  0  0  0  0  0  0  0  0  0
  -26.4336   13.2004   30.5735 C   0  0  0  0  0  0  0  0  0  0  0  0
  -27.3712   13.2216   31.5758 O   0  0  0  0  0  0  0  0  0  0  0  0
  -28.5930   13.9015   31.3124 C   0  0  0  0  0  0  0  0  0  0  0  0
  -29.1363   13.4304   30.4864 H   0  0  0  0  0  0  0  0  0  0  0  0
  -29.2180   13.8247   32.2073 H   0  0  0  0  0  0  0  0  0  0  0  0
  -28.4194   14.9651   31.1185 H   0  0  0  0  0  0  0  0  0  0  0  0
  -25.2231   12.6486   30.9505 C   0  0  0  0  0  0  0  0  0  0  0  0
  -25.0738   12.2843   31.9333 H   0  0  0  0  0  0  0  0  0  0  0  0
  -19.3246   11.9410   26.2864 C   0  0  0  0  0  0  0  0  0  0  0  0
  -19.2506   10.9237   25.9115 H   0  0  0  0  0  0  0  0  0  0  0  0
  -18.1457   12.4800   27.0618 C   0  0  0  0  0  0  0  0  0  0  0  0
  -18.3141   13.2015   27.8535 H   0  0  0  0  0  0  0  0  0  0  0  0
  -17.3102   11.8141   27.2403 H   0  0  0  0  0  0  0  0  0  0  0  0
  -18.3850   12.9386   25.6536 C   0  0  0  0  0  0  0  0  0  0  0  0
  -17.7159   12.5820   24.8798 H   0  0  0  0  0  0  0  0  0  0  0  0
  -18.7376   13.9533   25.5009 H   0  0  0  0  0  0  0  0  0  0  0  0
  1  2  2  0
  2  3  1  0
  2 22  1  0
  3  4  1  0
  3  5  1  0
  5  6  1  0
  5  9  2  0
  6  7  1  0
  7  8  1  0
  7 20  2  0
  8  9  1  0
  8 10  2  0
 10 11  1  0
 10 12  1  0
 12 13  1  0
 12 14  2  0
 14 15  1  0
 14 20  1  0
 15 16  1  0
 16 17  1  0
 16 18  1  0
 16 19  1  0
 20 21  1  0
 22 23  1  0
 22 24  1  0
 22 27  1  0
 24 25  1  0
 24 26  1  0
 24 27  1  0
 27 28  1  0
 27 29  1  0
M  END
$$$$
