F740_41
     RDKit          3D

 26 28  0  0  0  0  0  0  0  0999 V2000
  -22.2966   11.5188   27.3323 O   0  0  0  0  0  0  0  0  0  0  0  0
  -22.2353   12.6793   27.7259 C   0  0  0  0  0  0  0  0  0  0  0  0
  -20.9923   13.2443   27.8625 N   0  0  0  0  0  0  0  0  0  0  0  0
  -20.9363   14.2436   28.0793 H   0  0  0  0  0  0  0  0  0  0  0  0
  -19.7723   12.5213   27.6880 C   0  0  0  0  0  0  0  0  0  0  0  0
  -19.4408   12.0258   28.5981 H   0  0  0  0  0  0  0  0  0  0  0  0
  -18.6926   13.0370   26.7758 C   0  0  0  0  0  0  0  0  0  0  0  0
  -18.8707   13.9479   26.2170 H   0  0  0  0  0  0  0  0  0  0  0  0
  -17.6633   12.8996   27.0853 H   0  0  0  0  0  0  0  0  0  0  0  0
  -19.4781   11.8183   26.3912 C   0  0  0  0  0  0  0  0  0  0  0  0
  -18.9885   10.8537   26.4463 H   0  0  0  0  0  0  0  0  0  0  0  0
  -20.1970   11.9064   25.5857 H   0  0  0  0  0  0  0  0  0  0  0  0
  -23.4362   13.4979   28.0015 C   0  0  0  0  0  0  0  0  0  0  0  0
  -23.3767   14.4309   29.0543 C   0  0  0  0  0  0  0  0  0  0  0  0
  -22.4970   14.5386   29.6340 H   0  0  0  0  0  0  0  0  0  0  0  0
  -24.4915   15.2078   29.3218 C   0  0  0  0  0  0  0  0  0  0  0  0
  -24.5967   16.1447   30.2997 O   0  0  0  0  0  0  0  0  0  0  0  0
  -25.9487   16.6040   30.0931 C   0  0  0  0  0  0  0  0  0  0  0  0
  -26.5216   16.4319   31.0107 H   0  0  0  0  0  0  0  0  0  0  0  0
  -25.9263   17.6806   29.8887 H   0  0  0  0  0  0  0  0  0  0  0  0
  -26.6180   15.9407   28.9999 O   0  0  0  0  0  0  0  0  0  0  0  0
  -25.6419   15.0920   28.5814 C   0  0  0  0  0  0  0  0  0  0  0  0
  -25.7362   14.1922   27.5293 C   0  0  0  0  0  0  0  0  0  0  0  0
  -26.6301   14.1224   26.9636 H   0  0  0  0  0  0  0  0  0  0  0  0
  -24.6265   13.3973   27.2390 C   0  0  0  0  0  0  0  0  0  0  0  0
  -24.6791   12.7193   26.4259 H   0  0  0  0  0  0  0  0  0  0  0  0
  1  2  2  0
  2  3  1  0
  2 13  1  0
  3  4  1  0
  3  5  1  0
  5  6  1  0
  5  7  1  0
  5 10  1  0
  7  8  1  0
  7  9  1  0
  7 10  1  0
 10 11  1  0
 10 12  1  0
 13 14  1  0
 13 25  2  0
 14 15  1  0
 14 16  2  0
 16 17  1  0
 16 22  1  0
 17 18  1  0
 18 19  1  0
 18 20  1  0
 18 21  1  0
 21 22  1  0
 22 23  2  0
 23 24  1  0
 23 25  1  0
 25 26  1  0
M  END
$$$$
