F274_7
     RDKit          3D

 26 27  0  0  0  0  0  0  0  0999 V2000
  -24.2762   12.5365   26.2047 O   0  0  0  0  0  0  0  0  0  0  0  0
  -24.6267   12.6668   27.3844 C   0  0  0  0  0  0  0  0  0  0  0  0
  -23.9445   11.9692   28.3904 N   0  0  0  0  0  0  0  0  0  0  0  0
  -22.8063   11.1127   28.0675 C   0  0  0  0  0  0  0  0  0  0  0  0
  -22.5966   10.4710   28.9316 H   0  0  0  0  0  0  0  0  0  0  0  0
  -23.0620   10.4580   27.2273 H   0  0  0  0  0  0  0  0  0  0  0  0
  -21.6250   11.9436   27.7455 C   0  0  0  0  0  0  0  0  0  0  0  0
  -21.5480   13.1490   28.3137 O   0  0  0  0  0  0  0  0  0  0  0  0
  -20.4345   13.7772   27.9143 N   0  0  0  0  0  0  0  0  0  0  0  0
  -19.8182   12.9834   27.1083 C   0  0  0  0  0  0  0  0  0  0  0  0
  -18.5367   13.3699   26.4829 C   0  0  0  0  0  0  0  0  0  0  0  0
  -18.2617   12.6724   25.6848 H   0  0  0  0  0  0  0  0  0  0  0  0
  -17.7321   13.3668   27.2260 H   0  0  0  0  0  0  0  0  0  0  0  0
  -18.6003   14.3717   26.0457 H   0  0  0  0  0  0  0  0  0  0  0  0
  -20.5402   11.8071   26.9676 C   0  0  0  0  0  0  0  0  0  0  0  0
  -20.2935   10.9693   26.3684 H   0  0  0  0  0  0  0  0  0  0  0  0
  -24.2880   12.0472   29.7248 N   0  0  0  0  0  0  0  0  0  0  0  0
  -25.2805   12.7931   30.0983 C   0  0  0  0  0  0  0  0  0  0  0  0
  -25.6382   12.8608   31.5561 C   0  0  0  0  0  0  0  0  0  0  0  0
  -24.7595   13.1715   32.1302 H   0  0  0  0  0  0  0  0  0  0  0  0
  -25.9522   11.8688   31.8956 H   0  0  0  0  0  0  0  0  0  0  0  0
  -26.4486   13.5707   31.7387 H   0  0  0  0  0  0  0  0  0  0  0  0
  -26.0299   13.5443   29.1468 C   0  0  0  0  0  0  0  0  0  0  0  0
  -26.8333   14.1475   29.4836 H   0  0  0  0  0  0  0  0  0  0  0  0
  -25.7112   13.4855   27.8218 C   0  0  0  0  0  0  0  0  0  0  0  0
  -26.2477   14.0308   27.0909 H   0  0  0  0  0  0  0  0  0  0  0  0
  1  2  2  0
  2  3  1  0
  2 25  1  0
  3  4  1  0
  3 17  1  0
  4  5  1  0
  4  6  1  0
  4  7  1  0
  7  8  1  0
  7 15  2  0
  8  9  1  0
  9 10  2  0
 10 11  1  0
 10 15  1  0
 11 12  1  0
 11 13  1  0
 11 14  1  0
 15 16  1  0
 17 18  2  0
 18 19  1  0
 18 23  1  0
 19 20  1  0
 19 21  1  0
 19 22  1  0
 23 24  1  0
 23 25  2  0
 25 26  1  0
M  END
$$$$
