F389_33
     RDKit          3D

 18 18  0  0  0  0  0  0  0  0999 V2000
  -21.7658   13.9128   28.1192 O   0  0  0  0  0  0  0  0  0  0  0  0
  -21.3938   12.9582   27.4520 C   0  0  0  0  0  0  0  0  0  0  0  0
  -22.1222   11.8203   27.2480 O   0  0  0  0  0  0  0  0  0  0  0  0
  -23.3932   11.7503   27.9128 C   0  0  0  0  0  0  0  0  0  0  0  0
  -23.9248   10.8878   27.4970 H   0  0  0  0  0  0  0  0  0  0  0  0
  -24.0014   12.6369   27.7017 H   0  0  0  0  0  0  0  0  0  0  0  0
  -23.1916   11.5563   29.4032 C   0  0  0  0  0  0  0  0  0  0  0  0
  -22.6613   12.4075   29.8419 H   0  0  0  0  0  0  0  0  0  0  0  0
  -22.5813   10.6681   29.5969 H   0  0  0  0  0  0  0  0  0  0  0  0
  -24.1524   11.4422   29.9131 H   0  0  0  0  0  0  0  0  0  0  0  0
  -20.1039   12.9210   26.7872 C   0  0  0  0  0  0  0  0  0  0  0  0
  -19.5683   11.8893   26.0739 C   0  0  0  0  0  0  0  0  0  0  0  0
  -19.9405   10.9240   25.8449 H   0  0  0  0  0  0  0  0  0  0  0  0
  -18.3663   12.3173   25.6540 N   0  0  0  0  0  0  0  0  0  0  0  0
  -17.7006   11.7622   25.0810 H   0  0  0  0  0  0  0  0  0  0  0  0
  -18.1022   13.5866   26.0679 N   0  0  0  0  0  0  0  0  0  0  0  0
  -19.1539   13.9429   26.7504 C   0  0  0  0  0  0  0  0  0  0  0  0
  -19.2574   14.8930   27.2114 H   0  0  0  0  0  0  0  0  0  0  0  0
  1  2  2  0
  2  3  1  0
  2 11  1  0
  3  4  1  0
  4  5  1  0
  4  6  1  0
  4  7  1  0
  7  8  1  0
  7  9  1  0
  7 10  1  0
 11 12  2  0
 11 17  1  0
 12 13  1  0
 12 14  1  0
 14 15  1  0
 14 16  1  0
 16 17  2  0
 17 18  1  0
M  END
$$$$
