F529_84
     RDKit          3D

 23 23  0  0  0  0  0  0  0  0999 V2000
  -17.8406   13.1571   23.9243 S   0  0  0  0  0  0  0  0  0  0  0  0
  -17.2015   13.9231   22.8663 O   0  0  0  0  0  0  0  0  0  0  0  0
  -17.1497   12.0498   24.5571 O   0  0  0  0  0  0  0  0  0  0  0  0
  -19.3866   12.5588   23.2937 C   0  0  0  0  0  0  0  0  0  0  0  0
  -19.9661   13.4019   22.9119 H   0  0  0  0  0  0  0  0  0  0  0  0
  -19.9270   12.0464   24.0920 H   0  0  0  0  0  0  0  0  0  0  0  0
  -19.1740   11.8586   22.4837 H   0  0  0  0  0  0  0  0  0  0  0  0
  -18.3317   14.2815   25.2012 C   0  0  0  0  0  0  0  0  0  0  0  0
  -19.1446   13.8988   26.2822 C   0  0  0  0  0  0  0  0  0  0  0  0
  -19.6082   12.5882   26.3653 N   0  0  0  0  0  0  0  0  0  0  0  0
  -19.0140   11.8563   25.9498 H   0  0  0  0  0  0  0  0  0  0  0  0
  -20.8594   12.1759   26.9541 C   0  0  0  0  0  0  0  0  0  0  0  0
  -20.9211   12.4796   28.0045 H   0  0  0  0  0  0  0  0  0  0  0  0
  -20.9376   11.0848   26.9180 H   0  0  0  0  0  0  0  0  0  0  0  0
  -21.7105   12.5881   26.4034 H   0  0  0  0  0  0  0  0  0  0  0  0
  -19.4629   14.8240   27.2853 C   0  0  0  0  0  0  0  0  0  0  0  0
  -20.0497   14.5364   28.1166 H   0  0  0  0  0  0  0  0  0  0  0  0
  -19.0076   16.1326   27.1946 C   0  0  0  0  0  0  0  0  0  0  0  0
  -19.2562   16.8339   27.9495 H   0  0  0  0  0  0  0  0  0  0  0  0
  -18.2277   16.5276   26.1126 C   0  0  0  0  0  0  0  0  0  0  0  0
  -17.8874   17.5301   26.0415 H   0  0  0  0  0  0  0  0  0  0  0  0
  -17.8913   15.6053   25.1263 C   0  0  0  0  0  0  0  0  0  0  0  0
  -17.2921   15.9119   24.3067 H   0  0  0  0  0  0  0  0  0  0  0  0
  1  2  2  0
  1  3  2  0
  1  4  1  0
  1  8  1  0
  4  5  1  0
  4  6  1  0
  4  7  1  0
  8  9  1  0
  8 22  2  0
  9 10  1  0
  9 16  2  0
 10 11  1  0
 10 12  1  0
 12 13  1  0
 12 14  1  0
 12 15  1  0
 16 17  1  0
 16 18  1  0
 18 19  1  0
 18 20  2  0
 20 21  1  0
 20 22  1  0
 22 23  1  0
M  END
$$$$
