F687_52
     RDKit          3D

 24 25  0  0  0  0  0  0  0  0999 V2000
  -22.9160   13.1452   30.4244 F   0  0  0  0  0  0  0  0  0  0  0  0
  -23.9943   13.4545   29.6878 C   0  0  0  0  0  0  0  0  0  0  0  0
  -23.9657   13.3336   28.2839 C   0  0  0  0  0  0  0  0  0  0  0  0
  -22.8611   12.8990   27.5736 N   0  0  0  0  0  0  0  0  0  0  0  0
  -22.9528   12.5815   26.6133 H   0  0  0  0  0  0  0  0  0  0  0  0
  -21.4980   12.8395   28.0815 C   0  0  0  0  0  0  0  0  0  0  0  0
  -21.2549   13.7882   28.5765 H   0  0  0  0  0  0  0  0  0  0  0  0
  -21.4249   12.0388   28.8271 H   0  0  0  0  0  0  0  0  0  0  0  0
  -20.4410   12.5881   27.0412 C   0  0  0  0  0  0  0  0  0  0  0  0
  -20.2434   11.3916   26.5426 N   0  0  0  0  0  0  0  0  0  0  0  0
  -19.2292   11.5453   25.6503 N   0  0  0  0  0  0  0  0  0  0  0  0
  -18.8468   10.7602   25.0918 H   0  0  0  0  0  0  0  0  0  0  0  0
  -18.7998   12.8229   25.5886 C   0  0  0  0  0  0  0  0  0  0  0  0
  -18.0175   13.1337   24.9452 H   0  0  0  0  0  0  0  0  0  0  0  0
  -19.5646   13.5047   26.4685 C   0  0  0  0  0  0  0  0  0  0  0  0
  -19.5136   14.5429   26.6799 H   0  0  0  0  0  0  0  0  0  0  0  0
  -25.1114   13.6784   27.5629 C   0  0  0  0  0  0  0  0  0  0  0  0
  -25.1095   13.6101   26.5063 H   0  0  0  0  0  0  0  0  0  0  0  0
  -26.2545   14.1146   28.2332 C   0  0  0  0  0  0  0  0  0  0  0  0
  -27.1211   14.3710   27.6797 H   0  0  0  0  0  0  0  0  0  0  0  0
  -26.2692   14.2155   29.6259 C   0  0  0  0  0  0  0  0  0  0  0  0
  -27.1442   14.5469   30.1241 H   0  0  0  0  0  0  0  0  0  0  0  0
  -25.1300   13.8846   30.3577 C   0  0  0  0  0  0  0  0  0  0  0  0
  -25.1256   13.9641   31.4138 H   0  0  0  0  0  0  0  0  0  0  0  0
  1  2  1  0
  2  3  1  0
  2 23  2  0
  3  4  1  0
  3 17  2  0
  4  5  1  0
  4  6  1  0
  6  7  1  0
  6  8  1  0
  6  9  1  0
  9 10  2  0
  9 15  1  0
 10 11  1  0
 11 12  1  0
 11 13  1  0
 13 14  1  0
 13 15  2  0
 15 16  1  0
 17 18  1  0
 17 19  1  0
 19 20  1  0
 19 21  2  0
 21 22  1  0
 21 23  1  0
 23 24  1  0
M  END
$$$$
