F275_38
     RDKit          3D

 20 20  0  0  0  0  0  0  0  0999 V2000
  -22.8427   12.2359   27.5300 S   0  0  0  0  0  0  0  0  0  0  0  0
  -23.7072   12.3844   26.3819 O   0  0  0  0  0  0  0  0  0  0  0  0
  -21.6796   13.0730   27.7298 O   0  0  0  0  0  0  0  0  0  0  0  0
  -22.3104   10.6360   27.5456 N   0  0  0  0  0  0  0  0  0  0  0  0
  -23.0599    9.9808   27.7788 H   0  0  0  0  0  0  0  0  0  0  0  0
  -21.7936   10.3902   26.6974 H   0  0  0  0  0  0  0  0  0  0  0  0
  -23.8289   12.2930   28.9872 C   0  0  0  0  0  0  0  0  0  0  0  0
  -23.3972   11.6630   30.1583 C   0  0  0  0  0  0  0  0  0  0  0  0
  -22.4848   11.1252   30.1778 H   0  0  0  0  0  0  0  0  0  0  0  0
  -24.1792   11.7561   31.2995 C   0  0  0  0  0  0  0  0  0  0  0  0
  -23.7617   11.1467   32.4188 F   0  0  0  0  0  0  0  0  0  0  0  0
  -25.3735   12.4604   31.3285 C   0  0  0  0  0  0  0  0  0  0  0  0
  -25.9390   12.5090   32.2233 H   0  0  0  0  0  0  0  0  0  0  0  0
  -25.8057   13.1005   30.1693 C   0  0  0  0  0  0  0  0  0  0  0  0
  -27.0686   13.9114   30.1776 C   0  0  0  0  0  0  0  0  0  0  0  0
  -27.7875   13.5098   30.8994 H   0  0  0  0  0  0  0  0  0  0  0  0
  -27.5508   13.8924   29.1948 H   0  0  0  0  0  0  0  0  0  0  0  0
  -26.8448   14.9492   30.4411 H   0  0  0  0  0  0  0  0  0  0  0  0
  -25.0284   13.0180   29.0103 C   0  0  0  0  0  0  0  0  0  0  0  0
  -25.3446   13.5165   28.1275 H   0  0  0  0  0  0  0  0  0  0  0  0
  1  2  2  0
  1  3  2  0
  1  4  1  0
  1  7  1  0
  4  5  1  0
  4  6  1  0
  7  8  1  0
  7 19  2  0
  8  9  1  0
  8 10  2  0
 10 11  1  0
 10 12  1  0
 12 13  1  0
 12 14  2  0
 14 15  1  0
 14 19  1  0
 15 16  1  0
 15 17  1  0
 15 18  1  0
 19 20  1  0
M  END
$$$$
