F199_83
     RDKit          3D

 25 26  0  0  0  0  0  0  0  0999 V2000
  -23.8550   12.8704   25.9566 O   0  0  0  0  0  0  0  0  0  0  0  0
  -24.0901   13.2070   27.1152 C   0  0  0  0  0  0  0  0  0  0  0  0
  -23.0915   13.1192   28.0544 N   0  0  0  0  0  0  0  0  0  0  0  0
  -23.3792   13.4221   28.9955 H   0  0  0  0  0  0  0  0  0  0  0  0
  -21.7928   12.6806   27.8688 C   0  0  0  0  0  0  0  0  0  0  0  0
  -21.2220   12.6353   26.6478 C   0  0  0  0  0  0  0  0  0  0  0  0
  -21.5840   12.8885   25.6872 H   0  0  0  0  0  0  0  0  0  0  0  0
  -19.9705   12.1618   26.8676 N   0  0  0  0  0  0  0  0  0  0  0  0
  -18.9339   11.9182   25.8980 C   0  0  0  0  0  0  0  0  0  0  0  0
  -19.3053   12.1586   24.8991 H   0  0  0  0  0  0  0  0  0  0  0  0
  -18.6545   10.8628   25.9486 H   0  0  0  0  0  0  0  0  0  0  0  0
  -18.0784   12.5535   26.1408 H   0  0  0  0  0  0  0  0  0  0  0  0
  -19.7370   11.9084   28.1829 N   0  0  0  0  0  0  0  0  0  0  0  0
  -20.8517   12.2268   28.7922 C   0  0  0  0  0  0  0  0  0  0  0  0
  -20.9937   12.1428   29.8386 H   0  0  0  0  0  0  0  0  0  0  0  0
  -25.3657   13.7035   27.5904 C   0  0  0  0  0  0  0  0  0  0  0  0
  -26.2063   14.3352   26.8096 N   0  0  0  0  0  0  0  0  0  0  0  0
  -27.2658   14.6532   27.5478 O   0  0  0  0  0  0  0  0  0  0  0  0
  -27.1072   14.2266   28.8048 C   0  0  0  0  0  0  0  0  0  0  0  0
  -28.1995   14.5036   29.7508 C   0  0  0  0  0  0  0  0  0  0  0  0
  -27.9631   14.1204   30.7481 H   0  0  0  0  0  0  0  0  0  0  0  0
  -29.1267   14.0296   29.4148 H   0  0  0  0  0  0  0  0  0  0  0  0
  -28.3735   15.5805   29.8327 H   0  0  0  0  0  0  0  0  0  0  0  0
  -25.9146   13.6211   28.8715 C   0  0  0  0  0  0  0  0  0  0  0  0
  -25.4747   13.1687   29.7220 H   0  0  0  0  0  0  0  0  0  0  0  0
  1  2  2  0
  2  3  1  0
  2 16  1  0
  3  4  1  0
  3  5  1  0
  5  6  2  0
  5 14  1  0
  6  7  1  0
  6  8  1  0
  8  9  1  0
  8 13  1  0
  9 10  1  0
  9 11  1  0
  9 12  1  0
 13 14  2  0
 14 15  1  0
 16 17  2  0
 16 24  1  0
 17 18  1  0
 18 19  1  0
 19 20  1  0
 19 24  2  0
 20 21  1  0
 20 22  1  0
 20 23  1  0
 24 25  1  0
M  END
$$$$
