F650_89
     RDKit          3D

 23 24  0  0  0  0  0  0  0  0999 V2000
  -21.3454   11.7961   29.4531 O   0  0  0  0  0  0  0  0  0  0  0  0
  -21.6095   12.1757   28.3165 C   0  0  0  0  0  0  0  0  0  0  0  0
  -20.5463   12.5831   27.5272 N   0  0  0  0  0  0  0  0  0  0  0  0
  -20.5922   13.1712   26.1929 C   0  0  0  0  0  0  0  0  0  0  0  0
  -21.1451   12.5424   25.4941 H   0  0  0  0  0  0  0  0  0  0  0  0
  -21.0835   14.1467   26.2703 H   0  0  0  0  0  0  0  0  0  0  0  0
  -19.1335   13.3033   25.7709 C   0  0  0  0  0  0  0  0  0  0  0  0
  -18.8084   12.3874   25.2618 H   0  0  0  0  0  0  0  0  0  0  0  0
  -18.9653   14.1463   25.0968 H   0  0  0  0  0  0  0  0  0  0  0  0
  -18.3980   13.4405   27.0951 C   0  0  0  0  0  0  0  0  0  0  0  0
  -18.4790   14.4720   27.4584 H   0  0  0  0  0  0  0  0  0  0  0  0
  -17.3382   13.1811   27.0257 H   0  0  0  0  0  0  0  0  0  0  0  0
  -19.1734   12.5042   28.0069 C   0  0  0  0  0  0  0  0  0  0  0  0
  -19.0971   12.7869   29.0606 H   0  0  0  0  0  0  0  0  0  0  0  0
  -18.8403   11.4659   27.8929 H   0  0  0  0  0  0  0  0  0  0  0  0
  -22.9713   12.2628   27.8250 C   0  0  0  0  0  0  0  0  0  0  0  0
  -23.6643   11.2036   27.3183 C   0  0  0  0  0  0  0  0  0  0  0  0
  -23.3965   10.1852   27.2020 H   0  0  0  0  0  0  0  0  0  0  0  0
  -24.8587   11.6876   26.9421 N   0  0  0  0  0  0  0  0  0  0  0  0
  -25.6200   11.1264   26.5137 H   0  0  0  0  0  0  0  0  0  0  0  0
  -24.9681   13.0245   27.1781 N   0  0  0  0  0  0  0  0  0  0  0  0
  -23.8239   13.3627   27.7006 C   0  0  0  0  0  0  0  0  0  0  0  0
  -23.5872   14.3586   27.9768 H   0  0  0  0  0  0  0  0  0  0  0  0
  1  2  2  0
  2  3  1  0
  2 16  1  0
  3  4  1  0
  3 13  1  0
  4  5  1  0
  4  6  1  0
  4  7  1  0
  7  8  1  0
  7  9  1  0
  7 10  1  0
 10 11  1  0
 10 12  1  0
 10 13  1  0
 13 14  1  0
 13 15  1  0
 16 17  2  0
 16 22  1  0
 17 18  1  0
 17 19  1  0
 19 20  1  0
 19 21  1  0
 21 22  2  0
 22 23  1  0
M  END
$$$$
