F579_64
     RDKit          3D

 29 31  0  0  0  0  0  0  0  0999 V2000
  -17.1840   18.1947   26.8749 O   0  0  0  0  0  0  0  0  0  0  0  0
  -16.2538   17.5273   26.4812 C   0  0  0  0  0  0  0  0  0  0  0  0
  -16.3676   16.1851   26.2828 N   0  0  0  0  0  0  0  0  0  0  0  0
  -15.5244   15.6966   25.9700 H   0  0  0  0  0  0  0  0  0  0  0  0
  -17.4550   15.3589   26.4448 C   0  0  0  0  0  0  0  0  0  0  0  0
  -18.9876   15.9554   27.0042 S   0  0  0  0  0  0  0  0  0  0  0  0
  -19.6031   14.3446   26.8706 C   0  0  0  0  0  0  0  0  0  0  0  0
  -18.5949   13.4967   26.4141 C   0  0  0  0  0  0  0  0  0  0  0  0
  -17.3644   14.0952   26.1729 N   0  0  0  0  0  0  0  0  0  0  0  0
  -18.8842   12.1340   26.2329 C   0  0  0  0  0  0  0  0  0  0  0  0
  -18.1225   11.4854   25.8875 H   0  0  0  0  0  0  0  0  0  0  0  0
  -20.1559   11.6519   26.5075 C   0  0  0  0  0  0  0  0  0  0  0  0
  -20.3699   10.6244   26.3692 H   0  0  0  0  0  0  0  0  0  0  0  0
  -21.1584   12.5350   26.9679 C   0  0  0  0  0  0  0  0  0  0  0  0
  -22.4482   12.1748   27.2695 O   0  0  0  0  0  0  0  0  0  0  0  0
  -22.6325   10.9952   28.0435 C   0  0  0  0  0  0  0  0  0  0  0  0
  -22.1750   11.0976   29.0333 H   0  0  0  0  0  0  0  0  0  0  0  0
  -23.7079   10.8548   28.1880 H   0  0  0  0  0  0  0  0  0  0  0  0
  -22.2497   10.1141   27.5182 H   0  0  0  0  0  0  0  0  0  0  0  0
  -20.8946   13.8797   27.1528 C   0  0  0  0  0  0  0  0  0  0  0  0
  -21.6470   14.5390   27.4995 H   0  0  0  0  0  0  0  0  0  0  0  0
  -14.9335   18.1165   26.1680 C   0  0  0  0  0  0  0  0  0  0  0  0
  -14.4766   17.7047   25.2722 H   0  0  0  0  0  0  0  0  0  0  0  0
  -14.0066   18.5792   27.2672 C   0  0  0  0  0  0  0  0  0  0  0  0
  -14.3285   18.5081   28.3002 H   0  0  0  0  0  0  0  0  0  0  0  0
  -12.9422   18.4375   27.1247 H   0  0  0  0  0  0  0  0  0  0  0  0
  -14.6990   19.5894   26.4009 C   0  0  0  0  0  0  0  0  0  0  0  0
  -14.1066   20.1282   25.6714 H   0  0  0  0  0  0  0  0  0  0  0  0
  -15.4993   20.1751   26.8410 H   0  0  0  0  0  0  0  0  0  0  0  0
  1  2  2  0
  2  3  1  0
  2 22  1  0
  3  4  1  0
  3  5  1  0
  5  6  1  0
  5  9  2  0
  6  7  1  0
  7  8  1  0
  7 20  2  0
  8  9  1  0
  8 10  2  0
 10 11  1  0
 10 12  1  0
 12 13  1  0
 12 14  2  0
 14 15  1  0
 14 20  1  0
 15 16  1  0
 16 17  1  0
 16 18  1  0
 16 19  1  0
 20 21  1  0
 22 23  1  0
 22 24  1  0
 22 27  1  0
 24 25  1  0
 24 26  1  0
 24 27  1  0
 27 28  1  0
 27 29  1  0
M  END
$$$$
