F367_1
     RDKit          3D

 31 32  0  0  0  0  0  0  0  0999 V2000
  -20.0085   12.3925   28.6797 O   0  0  0  0  0  0  0  0  0  0  0  0
  -20.9707   12.2756   27.9321 C   0  0  0  0  0  0  0  0  0  0  0  0
  -20.7033   11.9957   26.6254 N   0  0  0  0  0  0  0  0  0  0  0  0
  -21.4684   11.7921   25.9715 H   0  0  0  0  0  0  0  0  0  0  0  0
  -19.3495   11.9361   26.1121 C   0  0  0  0  0  0  0  0  0  0  0  0
  -19.3446   11.3039   25.2167 H   0  0  0  0  0  0  0  0  0  0  0  0
  -18.7094   11.4609   26.8640 H   0  0  0  0  0  0  0  0  0  0  0  0
  -18.8863   13.3134   25.7961 C   0  0  0  0  0  0  0  0  0  0  0  0
  -18.4102   14.2355   26.6657 C   0  0  0  0  0  0  0  0  0  0  0  0
  -18.2540   14.2028   27.7114 H   0  0  0  0  0  0  0  0  0  0  0  0
  -18.1285   15.3314   25.9262 N   0  0  0  0  0  0  0  0  0  0  0  0
  -17.5949   16.5996   26.3765 C   0  0  0  0  0  0  0  0  0  0  0  0
  -17.8444   17.3537   25.6218 H   0  0  0  0  0  0  0  0  0  0  0  0
  -18.1147   16.8672   27.3025 H   0  0  0  0  0  0  0  0  0  0  0  0
  -16.0937   16.5470   26.5948 C   0  0  0  0  0  0  0  0  0  0  0  0
  -15.5711   16.2748   25.6713 H   0  0  0  0  0  0  0  0  0  0  0  0
  -15.8304   15.8062   27.3569 H   0  0  0  0  0  0  0  0  0  0  0  0
  -15.7229   17.5224   26.9239 H   0  0  0  0  0  0  0  0  0  0  0  0
  -18.4083   15.1348   24.6130 N   0  0  0  0  0  0  0  0  0  0  0  0
  -18.8677   13.9155   24.5440 C   0  0  0  0  0  0  0  0  0  0  0  0
  -19.1753   13.4631   23.6352 H   0  0  0  0  0  0  0  0  0  0  0  0
  -22.3669   12.3782   28.3985 C   0  0  0  0  0  0  0  0  0  0  0  0
  -22.6350   12.0937   29.7434 C   0  0  0  0  0  0  0  0  0  0  0  0
  -21.8407   11.8107   30.3892 H   0  0  0  0  0  0  0  0  0  0  0  0
  -23.8648   12.1589   30.2573 N   0  0  0  0  0  0  0  0  0  0  0  0
  -24.8873   12.5115   29.4807 C   0  0  0  0  0  0  0  0  0  0  0  0
  -25.8530   12.5544   29.9184 H   0  0  0  0  0  0  0  0  0  0  0  0
  -24.7084   12.8196   28.1348 C   0  0  0  0  0  0  0  0  0  0  0  0
  -25.5397   13.1022   27.5434 H   0  0  0  0  0  0  0  0  0  0  0  0
  -23.4373   12.7567   27.5784 C   0  0  0  0  0  0  0  0  0  0  0  0
  -23.2919   12.9997   26.5581 H   0  0  0  0  0  0  0  0  0  0  0  0
  1  2  2  0
  2  3  1  0
  2 22  1  0
  3  4  1  0
  3  5  1  0
  5  6  1  0
  5  7  1  0
  5  8  1  0
  8  9  2  0
  8 20  1  0
  9 10  1  0
  9 11  1  0
 11 12  1  0
 11 19  1  0
 12 13  1  0
 12 14  1  0
 12 15  1  0
 15 16  1  0
 15 17  1  0
 15 18  1  0
 19 20  2  0
 20 21  1  0
 22 23  1  0
 22 30  2  0
 23 24  1  0
 23 25  2  0
 25 26  1  0
 26 27  1  0
 26 28  2  0
 28 29  1  0
 28 30  1  0
 30 31  1  0
M  END
$$$$
