F217_77
     RDKit          3D

 28 29  0  0  0  0  0  0  0  0999 V2000
  -22.2780   10.8395   32.3721 O   0  0  0  0  0  0  0  0  0  0  0  0
  -23.1015   11.4138   31.6790 C   0  0  0  0  0  0  0  0  0  0  0  0
  -24.0829   12.0790   32.2550 N   0  0  0  0  0  0  0  0  0  0  0  0
  -24.0991   12.0753   33.2614 H   0  0  0  0  0  0  0  0  0  0  0  0
  -24.7789   12.5583   31.7112 H   0  0  0  0  0  0  0  0  0  0  0  0
  -23.0860   11.4267   30.1736 C   0  0  0  0  0  0  0  0  0  0  0  0
  -22.3728   10.6718   29.8245 H   0  0  0  0  0  0  0  0  0  0  0  0
  -24.0799   11.1306   29.8168 H   0  0  0  0  0  0  0  0  0  0  0  0
  -22.7106   12.8041   29.6435 C   0  0  0  0  0  0  0  0  0  0  0  0
  -21.8397   13.2076   30.1715 H   0  0  0  0  0  0  0  0  0  0  0  0
  -23.5239   13.5249   29.7933 H   0  0  0  0  0  0  0  0  0  0  0  0
  -22.4117   12.7686   28.2243 N   0  0  0  0  0  0  0  0  0  0  0  0
  -23.3022   12.9311   27.1883 C   0  0  0  0  0  0  0  0  0  0  0  0
  -24.7566   13.1661   27.3895 C   0  0  0  0  0  0  0  0  0  0  0  0
  -25.2479   13.3611   26.4316 H   0  0  0  0  0  0  0  0  0  0  0  0
  -24.9274   14.0312   28.0363 H   0  0  0  0  0  0  0  0  0  0  0  0
  -25.2301   12.2872   27.8373 H   0  0  0  0  0  0  0  0  0  0  0  0
  -22.7184   12.8556   26.0387 N   0  0  0  0  0  0  0  0  0  0  0  0
  -21.3865   12.6331   26.3096 C   0  0  0  0  0  0  0  0  0  0  0  0
  -21.1801   12.5744   27.6729 C   0  0  0  0  0  0  0  0  0  0  0  0
  -19.9170   12.3574   28.2426 C   0  0  0  0  0  0  0  0  0  0  0  0
  -19.7865   12.3123   29.2930 H   0  0  0  0  0  0  0  0  0  0  0  0
  -18.8420   12.2010   27.3812 C   0  0  0  0  0  0  0  0  0  0  0  0
  -17.8712   12.0354   27.7698 H   0  0  0  0  0  0  0  0  0  0  0  0
  -19.0321   12.2605   25.9818 C   0  0  0  0  0  0  0  0  0  0  0  0
  -18.1987   12.1385   25.3366 H   0  0  0  0  0  0  0  0  0  0  0  0
  -20.2947   12.4744   25.4455 C   0  0  0  0  0  0  0  0  0  0  0  0
  -20.4477   12.5189   24.4004 H   0  0  0  0  0  0  0  0  0  0  0  0
  1  2  2  0
  2  3  1  0
  2  6  1  0
  3  4  1  0
  3  5  1  0
  6  7  1  0
  6  8  1  0
  6  9  1  0
  9 10  1  0
  9 11  1  0
  9 12  1  0
 12 13  1  0
 12 20  1  0
 13 14  1  0
 13 18  2  0
 14 15  1  0
 14 16  1  0
 14 17  1  0
 18 19  1  0
 19 20  1  0
 19 27  2  0
 20 21  2  0
 21 22  1  0
 21 23  1  0
 23 24  1  0
 23 25  2  0
 25 26  1  0
 25 27  1  0
 27 28  1  0
M  END
$$$$
