F309_47
     RDKit          3D

 14 14  0  0  0  0  0  0  0  0999 V2000
  -26.0443   15.1805   26.9994 O   0  0  0  0  0  0  0  0  0  0  0  0
  -25.5055   14.8416   28.0894 C   0  0  0  0  0  0  0  0  0  0  0  0
  -25.6603   15.5660   29.1168 O   0  0  0  0  0  0  0  0  0  0  0  0
  -24.7119   13.6215   28.1625 C   0  0  0  0  0  0  0  0  0  0  0  0
  -23.9685   13.1653   29.2384 C   0  0  0  0  0  0  0  0  0  0  0  0
  -23.8480   13.8699   30.5580 C   0  0  0  0  0  0  0  0  0  0  0  0
  -23.2027   13.3142   31.2461 H   0  0  0  0  0  0  0  0  0  0  0  0
  -24.8284   13.9682   31.0349 H   0  0  0  0  0  0  0  0  0  0  0  0
  -23.4067   14.8635   30.4262 H   0  0  0  0  0  0  0  0  0  0  0  0
  -23.3180   11.9475   28.9820 C   0  0  0  0  0  0  0  0  0  0  0  0
  -22.7075   11.4483   29.6888 H   0  0  0  0  0  0  0  0  0  0  0  0
  -23.5526   11.4687   27.7259 C   0  0  0  0  0  0  0  0  0  0  0  0
  -23.1783   10.5763   27.2955 H   0  0  0  0  0  0  0  0  0  0  0  0
  -24.5849   12.5117   26.8267 S   0  0  0  0  0  0  0  0  0  0  0  0
  1  2  1  0
  2  3  2  0
  2  4  1  0
  4  5  2  0
  4 14  1  0
  5  6  1  0
  5 10  1  0
  6  7  1  0
  6  8  1  0
  6  9  1  0
 10 11  1  0
 10 12  2  0
 12 13  1  0
 12 14  1  0
M  END
$$$$
