F309_40
     RDKit          3D

 14 14  0  0  0  0  0  0  0  0999 V2000
  -18.0714   16.7016   27.5848 O   0  0  0  0  0  0  0  0  0  0  0  0
  -16.8216   16.6249   27.4250 C   0  0  0  0  0  0  0  0  0  0  0  0
  -16.1559   15.7762   28.0889 O   0  0  0  0  0  0  0  0  0  0  0  0
  -16.1517   17.5082   26.4790 C   0  0  0  0  0  0  0  0  0  0  0  0
  -16.6585   18.6600   25.9003 C   0  0  0  0  0  0  0  0  0  0  0  0
  -18.0287   19.2168   26.1557 C   0  0  0  0  0  0  0  0  0  0  0  0
  -18.1977   20.1323   25.5796 H   0  0  0  0  0  0  0  0  0  0  0  0
  -18.1531   19.4674   27.2140 H   0  0  0  0  0  0  0  0  0  0  0  0
  -18.7992   18.4971   25.8596 H   0  0  0  0  0  0  0  0  0  0  0  0
  -15.7517   19.2834   25.0281 C   0  0  0  0  0  0  0  0  0  0  0  0
  -15.9659   20.1750   24.4983 H   0  0  0  0  0  0  0  0  0  0  0  0
  -14.5613   18.6236   24.9312 C   0  0  0  0  0  0  0  0  0  0  0  0
  -13.7219   18.8905   24.3431 H   0  0  0  0  0  0  0  0  0  0  0  0
  -14.5302   17.2131   25.9169 S   0  0  0  0  0  0  0  0  0  0  0  0
  1  2  1  0
  2  3  2  0
  2  4  1  0
  4  5  2  0
  4 14  1  0
  5  6  1  0
  5 10  1  0
  6  7  1  0
  6  8  1  0
  6  9  1  0
 10 11  1  0
 10 12  2  0
 12 13  1  0
 12 14  1  0
M  END
$$$$
