F763_66
     RDKit          3D

 19 19  0  0  0  0  0  0  0  0999 V2000
  -18.3685   12.7116   25.7740 Br  0  0  0  0  0  0  0  0  0  0  0  0
  -19.9775   12.5273   26.7094 C   0  0  0  0  0  0  0  0  0  0  0  0
  -20.6604   11.3496   26.7033 C   0  0  0  0  0  0  0  0  0  0  0  0
  -20.3055   10.5079   26.1719 H   0  0  0  0  0  0  0  0  0  0  0  0
  -21.8896   11.2131   27.4167 C   0  0  0  0  0  0  0  0  0  0  0  0
  -22.5682   10.1781   27.4354 O   0  0  0  0  0  0  0  0  0  0  0  0
  -22.3564   12.3222   28.1292 N   0  0  0  0  0  0  0  0  0  0  0  0
  -23.6086   12.2269   28.8816 C   0  0  0  0  0  0  0  0  0  0  0  0
  -23.6961   11.2231   29.3152 H   0  0  0  0  0  0  0  0  0  0  0  0
  -23.5853   12.9150   29.7368 H   0  0  0  0  0  0  0  0  0  0  0  0
  -24.8301   12.5076   28.0082 C   0  0  0  0  0  0  0  0  0  0  0  0
  -24.9100   11.7937   27.1819 H   0  0  0  0  0  0  0  0  0  0  0  0
  -24.7674   13.5109   27.5738 H   0  0  0  0  0  0  0  0  0  0  0  0
  -26.0204   12.4391   28.7847 O   0  0  0  0  0  0  0  0  0  0  0  0
  -25.9463   13.1078   29.4891 H   0  0  0  0  0  0  0  0  0  0  0  0
  -21.6607   13.5262   28.1300 C   0  0  0  0  0  0  0  0  0  0  0  0
  -22.0978   14.3149   28.6922 H   0  0  0  0  0  0  0  0  0  0  0  0
  -20.4912   13.6372   27.4372 C   0  0  0  0  0  0  0  0  0  0  0  0
  -19.9532   14.5505   27.4325 H   0  0  0  0  0  0  0  0  0  0  0  0
  1  2  1  0
  2  3  2  0
  2 18  1  0
  3  4  1  0
  3  5  1  0
  5  6  2  0
  5  7  1  0
  7  8  1  0
  7 16  1  0
  8  9  1  0
  8 10  1  0
  8 11  1  0
 11 12  1  0
 11 13  1  0
 11 14  1  0
 14 15  1  0
 16 17  1  0
 16 18  2  0
 18 19  1  0
M  END
$$$$
