F274_51
     RDKit          3D

 26 27  0  0  0  0  0  0  0  0999 V2000
  -19.9396   11.2495   25.2857 O   0  0  0  0  0  0  0  0  0  0  0  0
  -19.5988   12.4183   25.5085 C   0  0  0  0  0  0  0  0  0  0  0  0
  -20.0428   13.0588   26.6733 N   0  0  0  0  0  0  0  0  0  0  0  0
  -20.8789   12.3551   27.6423 C   0  0  0  0  0  0  0  0  0  0  0  0
  -20.8934   11.2901   27.3817 H   0  0  0  0  0  0  0  0  0  0  0  0
  -20.4402   12.4420   28.6423 H   0  0  0  0  0  0  0  0  0  0  0  0
  -22.2510   12.9084   27.6206 C   0  0  0  0  0  0  0  0  0  0  0  0
  -22.9792   12.7035   26.5207 O   0  0  0  0  0  0  0  0  0  0  0  0
  -24.1842   13.2734   26.6521 N   0  0  0  0  0  0  0  0  0  0  0  0
  -24.2177   13.8285   27.8142 C   0  0  0  0  0  0  0  0  0  0  0  0
  -25.4188   14.5485   28.2849 C   0  0  0  0  0  0  0  0  0  0  0  0
  -25.2044   15.1202   29.1940 H   0  0  0  0  0  0  0  0  0  0  0  0
  -26.2238   13.8417   28.5127 H   0  0  0  0  0  0  0  0  0  0  0  0
  -25.7785   15.2497   27.5248 H   0  0  0  0  0  0  0  0  0  0  0  0
  -23.0089   13.6258   28.4641 C   0  0  0  0  0  0  0  0  0  0  0  0
  -22.7323   13.9667   29.4280 H   0  0  0  0  0  0  0  0  0  0  0  0
  -19.7221   14.3653   26.9816 N   0  0  0  0  0  0  0  0  0  0  0  0
  -18.9757   15.0584   26.1794 C   0  0  0  0  0  0  0  0  0  0  0  0
  -18.6416   16.4797   26.5341 C   0  0  0  0  0  0  0  0  0  0  0  0
  -18.1730   16.5052   27.5231 H   0  0  0  0  0  0  0  0  0  0  0  0
  -19.5632   17.0695   26.5619 H   0  0  0  0  0  0  0  0  0  0  0  0
  -17.9577   16.9253   25.8076 H   0  0  0  0  0  0  0  0  0  0  0  0
  -18.4725   14.4895   24.9734 C   0  0  0  0  0  0  0  0  0  0  0  0
  -17.8621   15.0803   24.3402 H   0  0  0  0  0  0  0  0  0  0  0  0
  -18.7739   13.2003   24.6450 C   0  0  0  0  0  0  0  0  0  0  0  0
  -18.4161   12.7490   23.7575 H   0  0  0  0  0  0  0  0  0  0  0  0
  1  2  2  0
  2  3  1  0
  2 25  1  0
  3  4  1  0
  3 17  1  0
  4  5  1  0
  4  6  1  0
  4  7  1  0
  7  8  1  0
  7 15  2  0
  8  9  1  0
  9 10  2  0
 10 11  1  0
 10 15  1  0
 11 12  1  0
 11 13  1  0
 11 14  1  0
 15 16  1  0
 17 18  2  0
 18 19  1  0
 18 23  1  0
 19 20  1  0
 19 21  1  0
 19 22  1  0
 23 24  1  0
 23 25  2  0
 25 26  1  0
M  END
$$$$
