F763_78
     RDKit          3D

 19 19  0  0  0  0  0  0  0  0999 V2000
  -26.5210   12.7942   31.5685 Br  0  0  0  0  0  0  0  0  0  0  0  0
  -25.1684   12.6301   30.2874 C   0  0  0  0  0  0  0  0  0  0  0  0
  -25.1959   13.3648   29.1416 C   0  0  0  0  0  0  0  0  0  0  0  0
  -25.9785   14.0459   28.9406 H   0  0  0  0  0  0  0  0  0  0  0  0
  -24.1627   13.2354   28.1646 C   0  0  0  0  0  0  0  0  0  0  0  0
  -24.1389   13.8580   27.0951 O   0  0  0  0  0  0  0  0  0  0  0  0
  -23.1204   12.3423   28.4325 N   0  0  0  0  0  0  0  0  0  0  0  0
  -22.0352   12.1817   27.4633 C   0  0  0  0  0  0  0  0  0  0  0  0
  -21.8665   11.1133   27.2808 H   0  0  0  0  0  0  0  0  0  0  0  0
  -22.3334   12.6016   26.4937 H   0  0  0  0  0  0  0  0  0  0  0  0
  -20.7339   12.8234   27.9415 C   0  0  0  0  0  0  0  0  0  0  0  0
  -20.3955   12.3946   28.8903 H   0  0  0  0  0  0  0  0  0  0  0  0
  -20.8715   13.8989   28.0949 H   0  0  0  0  0  0  0  0  0  0  0  0
  -19.7085   12.6461   26.9712 O   0  0  0  0  0  0  0  0  0  0  0  0
  -19.5712   11.6875   26.8657 H   0  0  0  0  0  0  0  0  0  0  0  0
  -23.0965   11.5884   29.6008 C   0  0  0  0  0  0  0  0  0  0  0  0
  -22.2696   10.9304   29.7121 H   0  0  0  0  0  0  0  0  0  0  0  0
  -24.0964   11.7230   30.5185 C   0  0  0  0  0  0  0  0  0  0  0  0
  -24.0865   11.1534   31.4123 H   0  0  0  0  0  0  0  0  0  0  0  0
  1  2  1  0
  2  3  2  0
  2 18  1  0
  3  4  1  0
  3  5  1  0
  5  6  2  0
  5  7  1  0
  7  8  1  0
  7 16  1  0
  8  9  1  0
  8 10  1  0
  8 11  1  0
 11 12  1  0
 11 13  1  0
 11 14  1  0
 14 15  1  0
 16 17  1  0
 16 18  2  0
 18 19  1  0
M  END
$$$$
