F205_93
     RDKit          3D

 20 20  0  0  0  0  0  0  0  0999 V2000
  -18.6124   11.3580   23.9948 O   0  0  0  0  0  0  0  0  0  0  0  0
  -18.8673   12.3529   24.7013 C   0  0  0  0  0  0  0  0  0  0  0  0
  -19.6414   12.1814   25.8652 N   0  0  0  0  0  0  0  0  0  0  0  0
  -20.1219   10.8478   26.2136 C   0  0  0  0  0  0  0  0  0  0  0  0
  -19.7418   10.5726   27.2020 H   0  0  0  0  0  0  0  0  0  0  0  0
  -19.7890   10.0868   25.5022 H   0  0  0  0  0  0  0  0  0  0  0  0
  -21.2167   10.8493   26.2180 H   0  0  0  0  0  0  0  0  0  0  0  0
  -19.9643   13.2843   26.6885 C   0  0  0  0  0  0  0  0  0  0  0  0
  -20.8146   13.0768   27.9108 C   0  0  0  0  0  0  0  0  0  0  0  0
  -21.7977   12.6803   27.6365 H   0  0  0  0  0  0  0  0  0  0  0  0
  -20.9844   14.0140   28.4519 H   0  0  0  0  0  0  0  0  0  0  0  0
  -20.3328   12.3852   28.6083 H   0  0  0  0  0  0  0  0  0  0  0  0
  -19.4874   14.5257   26.3703 C   0  0  0  0  0  0  0  0  0  0  0  0
  -19.7207   15.3553   26.9866 H   0  0  0  0  0  0  0  0  0  0  0  0
  -18.6850   14.7443   25.2181 C   0  0  0  0  0  0  0  0  0  0  0  0
  -18.3356   15.7188   24.9937 H   0  0  0  0  0  0  0  0  0  0  0  0
  -18.3860   13.6951   24.4006 C   0  0  0  0  0  0  0  0  0  0  0  0
  -17.6261   13.8308   23.2652 N   0  0  0  0  0  0  0  0  0  0  0  0
  -17.2528   14.7261   22.9849 H   0  0  0  0  0  0  0  0  0  0  0  0
  -17.4516   12.9926   22.7156 H   0  0  0  0  0  0  0  0  0  0  0  0
  1  2  2  0
  2  3  1  0
  2 17  1  0
  3  4  1  0
  3  8  1  0
  4  5  1  0
  4  6  1  0
  4  7  1  0
  8  9  1  0
  8 13  2  0
  9 10  1  0
  9 11  1  0
  9 12  1  0
 13 14  1  0
 13 15  1  0
 15 16  1  0
 15 17  2  0
 17 18  1  0
 18 19  1  0
 18 20  1  0
M  END
$$$$
