F275_44
     RDKit          3D

 20 20  0  0  0  0  0  0  0  0999 V2000
  -18.3155   14.7585   26.4906 S   0  0  0  0  0  0  0  0  0  0  0  0
  -17.5968   13.7978   27.2956 O   0  0  0  0  0  0  0  0  0  0  0  0
  -19.7560   14.8825   26.5451 O   0  0  0  0  0  0  0  0  0  0  0  0
  -17.9039   14.4637   24.8822 N   0  0  0  0  0  0  0  0  0  0  0  0
  -17.1971   15.1171   24.5374 H   0  0  0  0  0  0  0  0  0  0  0  0
  -17.6773   13.4803   24.7132 H   0  0  0  0  0  0  0  0  0  0  0  0
  -17.6078   16.3497   26.7491 C   0  0  0  0  0  0  0  0  0  0  0  0
  -18.3875   17.3978   27.2470 C   0  0  0  0  0  0  0  0  0  0  0  0
  -19.4167   17.2553   27.4531 H   0  0  0  0  0  0  0  0  0  0  0  0
  -17.7926   18.6298   27.4734 C   0  0  0  0  0  0  0  0  0  0  0  0
  -18.5464   19.6324   27.9477 F   0  0  0  0  0  0  0  0  0  0  0  0
  -16.4466   18.8621   27.2336 C   0  0  0  0  0  0  0  0  0  0  0  0
  -16.0313   19.8182   27.4236 H   0  0  0  0  0  0  0  0  0  0  0  0
  -15.6598   17.8202   26.7479 C   0  0  0  0  0  0  0  0  0  0  0  0
  -14.1899   18.0224   26.5227 C   0  0  0  0  0  0  0  0  0  0  0  0
  -13.9737   19.0620   26.2550 H   0  0  0  0  0  0  0  0  0  0  0  0
  -13.8312   17.3946   25.7006 H   0  0  0  0  0  0  0  0  0  0  0  0
  -13.6340   17.7678   27.4298 H   0  0  0  0  0  0  0  0  0  0  0  0
  -16.2434   16.5713   26.5157 C   0  0  0  0  0  0  0  0  0  0  0  0
  -15.6459   15.7686   26.1601 H   0  0  0  0  0  0  0  0  0  0  0  0
  1  2  2  0
  1  3  2  0
  1  4  1  0
  1  7  1  0
  4  5  1  0
  4  6  1  0
  7  8  1  0
  7 19  2  0
  8  9  1  0
  8 10  2  0
 10 11  1  0
 10 12  1  0
 12 13  1  0
 12 14  2  0
 14 15  1  0
 14 19  1  0
 15 16  1  0
 15 17  1  0
 15 18  1  0
 19 20  1  0
M  END
$$$$
