F366_97
     RDKit          3D

 22 22  0  0  0  0  0  0  0  0999 V2000
  -18.6568   12.2222   23.3296 O   0  0  0  0  0  0  0  0  0  0  0  0
  -18.1705   12.8433   22.7600 H   0  0  0  0  0  0  0  0  0  0  0  0
  -18.7949   12.8464   24.6030 C   0  0  0  0  0  0  0  0  0  0  0  0
  -17.8287   13.2722   24.8948 H   0  0  0  0  0  0  0  0  0  0  0  0
  -19.5212   13.6584   24.4957 H   0  0  0  0  0  0  0  0  0  0  0  0
  -19.2983   11.8352   25.6310 C   0  0  0  0  0  0  0  0  0  0  0  0
  -19.8581   11.0494   25.1090 H   0  0  0  0  0  0  0  0  0  0  0  0
  -18.4479   11.3536   26.1309 H   0  0  0  0  0  0  0  0  0  0  0  0
  -20.1812   12.4521   26.6698 C   0  0  0  0  0  0  0  0  0  0  0  0
  -21.2764   11.9035   27.2422 C   0  0  0  0  0  0  0  0  0  0  0  0
  -21.7493   10.9674   27.1007 H   0  0  0  0  0  0  0  0  0  0  0  0
  -21.7381   12.8228   28.1181 N   0  0  0  0  0  0  0  0  0  0  0  0
  -22.8887   12.7227   28.9895 C   0  0  0  0  0  0  0  0  0  0  0  0
  -23.4583   11.8364   28.6903 H   0  0  0  0  0  0  0  0  0  0  0  0
  -22.5213   12.5588   30.0083 H   0  0  0  0  0  0  0  0  0  0  0  0
  -23.7653   13.9607   28.9247 C   0  0  0  0  0  0  0  0  0  0  0  0
  -24.1376   14.1276   27.9072 H   0  0  0  0  0  0  0  0  0  0  0  0
  -23.2108   14.8554   29.2271 H   0  0  0  0  0  0  0  0  0  0  0  0
  -24.6273   13.8513   29.5899 H   0  0  0  0  0  0  0  0  0  0  0  0
  -20.9752   13.9442   28.1212 N   0  0  0  0  0  0  0  0  0  0  0  0
  -20.0353   13.7112   27.2455 C   0  0  0  0  0  0  0  0  0  0  0  0
  -19.2673   14.4071   27.0112 H   0  0  0  0  0  0  0  0  0  0  0  0
  1  2  1  0
  1  3  1  0
  3  4  1  0
  3  5  1  0
  3  6  1  0
  6  7  1  0
  6  8  1  0
  6  9  1  0
  9 10  2  0
  9 21  1  0
 10 11  1  0
 10 12  1  0
 12 13  1  0
 12 20  1  0
 13 14  1  0
 13 15  1  0
 13 16  1  0
 16 17  1  0
 16 18  1  0
 16 19  1  0
 20 21  2  0
 21 22  1  0
M  END
$$$$
