F501_61
     RDKit          3D

 23 24  0  0  0  0  0  0  0  0999 V2000
  -24.5249   12.2606   32.5616 C   0  0  0  0  0  0  0  0  0  0  0  0
  -25.5946   12.4190   32.4015 H   0  0  0  0  0  0  0  0  0  0  0  0
  -24.1051   13.0891   33.1369 H   0  0  0  0  0  0  0  0  0  0  0  0
  -24.3736   11.3159   33.0891 H   0  0  0  0  0  0  0  0  0  0  0  0
  -23.8464   12.1998   31.2958 N   0  0  0  0  0  0  0  0  0  0  0  0
  -22.6034   11.7007   31.2295 N   0  0  0  0  0  0  0  0  0  0  0  0
  -22.2091   11.7704   29.9801 N   0  0  0  0  0  0  0  0  0  0  0  0
  -23.2231   12.3128   29.2748 C   0  0  0  0  0  0  0  0  0  0  0  0
  -24.2600   12.5781   30.0852 C   0  0  0  0  0  0  0  0  0  0  0  0
  -25.5711   13.1559   29.6898 C   0  0  0  0  0  0  0  0  0  0  0  0
  -26.3145   12.3483   29.6983 H   0  0  0  0  0  0  0  0  0  0  0  0
  -25.9013   13.8986   30.4225 H   0  0  0  0  0  0  0  0  0  0  0  0
  -25.4889   13.7355   28.2565 C   0  0  0  0  0  0  0  0  0  0  0  0
  -25.0506   15.2032   28.2870 C   0  0  0  0  0  0  0  0  0  0  0  0
  -25.4218   15.9285   27.3375 O   0  0  0  0  0  0  0  0  0  0  0  0
  -24.3187   15.5748   29.2294 O   0  0  0  0  0  0  0  0  0  0  0  0
  -24.6406   12.8454   27.3113 C   0  0  0  0  0  0  0  0  0  0  0  0
  -25.1487   11.8762   27.2122 H   0  0  0  0  0  0  0  0  0  0  0  0
  -24.5964   13.2740   26.3031 H   0  0  0  0  0  0  0  0  0  0  0  0
  -23.2040   12.5970   27.8232 C   0  0  0  0  0  0  0  0  0  0  0  0
  -22.5784   13.4774   27.6376 H   0  0  0  0  0  0  0  0  0  0  0  0
  -22.7587   11.7592   27.2745 H   0  0  0  0  0  0  0  0  0  0  0  0
  -26.5105   13.7652   27.8534 H   0  0  0  0  0  0  0  0  0  0  0  0
  1  2  1  0
  1  3  1  0
  1  4  1  0
  1  5  1  0
  5  6  1  0
  5  9  1  0
  6  7  2  0
  7  8  1  0
  8  9  2  0
  8 20  1  0
  9 10  1  0
 10 11  1  0
 10 12  1  0
 10 13  1  0
 13 14  1  0
 13 17  1  0
 13 23  1  0
 14 15  1  0
 14 16  2  0
 17 18  1  0
 17 19  1  0
 17 20  1  0
 20 21  1  0
 20 22  1  0
M  END
$$$$
