F366_37
     RDKit          3D

 22 22  0  0  0  0  0  0  0  0999 V2000
  -19.6317   11.8975   23.6117 O   0  0  0  0  0  0  0  0  0  0  0  0
  -20.4413   11.9038   24.1512 H   0  0  0  0  0  0  0  0  0  0  0  0
  -18.8090   12.9610   24.0834 C   0  0  0  0  0  0  0  0  0  0  0  0
  -17.8962   12.9967   23.4789 H   0  0  0  0  0  0  0  0  0  0  0  0
  -19.3632   13.8945   23.9425 H   0  0  0  0  0  0  0  0  0  0  0  0
  -18.4960   12.7643   25.5653 C   0  0  0  0  0  0  0  0  0  0  0  0
  -17.8066   11.9177   25.6715 H   0  0  0  0  0  0  0  0  0  0  0  0
  -17.9870   13.6522   25.9621 H   0  0  0  0  0  0  0  0  0  0  0  0
  -19.7180   12.5018   26.3882 C   0  0  0  0  0  0  0  0  0  0  0  0
  -20.3898   13.3863   27.1591 C   0  0  0  0  0  0  0  0  0  0  0  0
  -20.2233   14.4118   27.3605 H   0  0  0  0  0  0  0  0  0  0  0  0
  -21.4194   12.6998   27.7015 N   0  0  0  0  0  0  0  0  0  0  0  0
  -22.4414   13.1909   28.6002 C   0  0  0  0  0  0  0  0  0  0  0  0
  -22.3604   12.6293   29.5370 H   0  0  0  0  0  0  0  0  0  0  0  0
  -22.2173   14.2410   28.8167 H   0  0  0  0  0  0  0  0  0  0  0  0
  -23.8353   13.0459   28.0161 C   0  0  0  0  0  0  0  0  0  0  0  0
  -24.0651   11.9961   27.7999 H   0  0  0  0  0  0  0  0  0  0  0  0
  -23.9336   13.6075   27.0810 H   0  0  0  0  0  0  0  0  0  0  0  0
  -24.5836   13.4212   28.7208 H   0  0  0  0  0  0  0  0  0  0  0  0
  -21.4251   11.4027   27.3051 N   0  0  0  0  0  0  0  0  0  0  0  0
  -20.3957   11.2918   26.5099 C   0  0  0  0  0  0  0  0  0  0  0  0
  -20.1219   10.3848   26.0289 H   0  0  0  0  0  0  0  0  0  0  0  0
  1  2  1  0
  1  3  1  0
  3  4  1  0
  3  5  1  0
  3  6  1  0
  6  7  1  0
  6  8  1  0
  6  9  1  0
  9 10  2  0
  9 21  1  0
 10 11  1  0
 10 12  1  0
 12 13  1  0
 12 20  1  0
 13 14  1  0
 13 15  1  0
 13 16  1  0
 16 17  1  0
 16 18  1  0
 16 19  1  0
 20 21  2  0
 21 22  1  0
M  END
$$$$
