F535_59
     RDKit          3D

 23 24  0  0  0  0  0  0  0  0999 V2000
  -19.8115   12.6215   27.9810 N   0  0  0  0  0  0  0  0  0  0  0  0
  -19.7370   13.5979   28.3051 H   0  0  0  0  0  0  0  0  0  0  0  0
  -19.6559   12.0625   28.8319 H   0  0  0  0  0  0  0  0  0  0  0  0
  -21.2220   12.3921   27.5273 C   0  0  0  0  0  0  0  0  0  0  0  0
  -21.4782   13.2197   26.8595 H   0  0  0  0  0  0  0  0  0  0  0  0
  -21.2256   11.4484   26.9713 H   0  0  0  0  0  0  0  0  0  0  0  0
  -22.1472   12.3309   28.6816 C   0  0  0  0  0  0  0  0  0  0  0  0
  -23.4311   12.7131   28.6727 N   0  0  0  0  0  0  0  0  0  0  0  0
  -23.9060   12.4966   29.9208 C   0  0  0  0  0  0  0  0  0  0  0  0
  -22.9412   11.9949   30.6572 N   0  0  0  0  0  0  0  0  0  0  0  0
  -21.8413   11.8913   29.8686 N   0  0  0  0  0  0  0  0  0  0  0  0
  -25.2661   12.8215   30.2053 C   0  0  0  0  0  0  0  0  0  0  0  0
  -25.6389   12.6542   31.1832 H   0  0  0  0  0  0  0  0  0  0  0  0
  -26.0606   13.3396   29.2231 C   0  0  0  0  0  0  0  0  0  0  0  0
  -27.0737   13.5868   29.4194 H   0  0  0  0  0  0  0  0  0  0  0  0
  -25.5241   13.5517   27.9144 C   0  0  0  0  0  0  0  0  0  0  0  0
  -26.1567   13.9537   27.1619 H   0  0  0  0  0  0  0  0  0  0  0  0
  -24.2211   13.2430   27.6374 C   0  0  0  0  0  0  0  0  0  0  0  0
  -23.7462   13.3674   26.6998 H   0  0  0  0  0  0  0  0  0  0  0  0
  -18.7652   12.3324   26.9727 C   0  0  0  0  0  0  0  0  0  0  0  0
  -18.9293   12.9815   26.1102 H   0  0  0  0  0  0  0  0  0  0  0  0
  -18.8366   11.2779   26.6964 H   0  0  0  0  0  0  0  0  0  0  0  0
  -17.7973   12.5428   27.4337 H   0  0  0  0  0  0  0  0  0  0  0  0
  1  2  1  0
  1  3  1  0
  1  4  1  0
  1 20  1  0
  4  5  1  0
  4  6  1  0
  4  7  1  0
  7  8  1  0
  7 11  2  0
  8  9  1  0
  8 18  1  0
  9 10  2  0
  9 12  1  0
 10 11  1  0
 12 13  1  0
 12 14  2  0
 14 15  1  0
 14 16  1  0
 16 17  1  0
 16 18  2  0
 18 19  1  0
 20 21  1  0
 20 22  1  0
 20 23  1  0
M  END
$$$$
