F217_24
     RDKit          3D

 28 29  0  0  0  0  0  0  0  0999 V2000
  -22.7964   10.8247   27.5045 O   0  0  0  0  0  0  0  0  0  0  0  0
  -22.0826   11.7957   27.6939 C   0  0  0  0  0  0  0  0  0  0  0  0
  -21.2332   12.1686   26.7574 N   0  0  0  0  0  0  0  0  0  0  0  0
  -21.2201   11.6161   25.9161 H   0  0  0  0  0  0  0  0  0  0  0  0
  -20.6290   12.9613   26.8856 H   0  0  0  0  0  0  0  0  0  0  0  0
  -22.0950   12.6295   28.9475 C   0  0  0  0  0  0  0  0  0  0  0  0
  -21.4790   12.1319   29.7047 H   0  0  0  0  0  0  0  0  0  0  0  0
  -21.6252   13.5947   28.7232 H   0  0  0  0  0  0  0  0  0  0  0  0
  -23.5162   12.8264   29.4579 C   0  0  0  0  0  0  0  0  0  0  0  0
  -23.5345   12.9301   30.5482 H   0  0  0  0  0  0  0  0  0  0  0  0
  -24.1494   11.9630   29.2189 H   0  0  0  0  0  0  0  0  0  0  0  0
  -24.1370   14.0006   28.8742 N   0  0  0  0  0  0  0  0  0  0  0  0
  -24.8250   14.0662   27.6846 C   0  0  0  0  0  0  0  0  0  0  0  0
  -25.0274   12.8947   26.7915 C   0  0  0  0  0  0  0  0  0  0  0  0
  -25.6821   13.1601   25.9561 H   0  0  0  0  0  0  0  0  0  0  0  0
  -25.4928   12.0661   27.3323 H   0  0  0  0  0  0  0  0  0  0  0  0
  -24.0727   12.5578   26.3763 H   0  0  0  0  0  0  0  0  0  0  0  0
  -25.2654   15.2576   27.4512 N   0  0  0  0  0  0  0  0  0  0  0  0
  -24.8586   16.0231   28.5214 C   0  0  0  0  0  0  0  0  0  0  0  0
  -24.1499   15.2503   29.4188 C   0  0  0  0  0  0  0  0  0  0  0  0
  -23.6110   15.7653   30.6069 C   0  0  0  0  0  0  0  0  0  0  0  0
  -23.0669   15.1510   31.2770 H   0  0  0  0  0  0  0  0  0  0  0  0
  -23.8135   17.1105   30.8740 C   0  0  0  0  0  0  0  0  0  0  0  0
  -23.4236   17.5395   31.7600 H   0  0  0  0  0  0  0  0  0  0  0  0
  -24.5390   17.9184   29.9689 C   0  0  0  0  0  0  0  0  0  0  0  0
  -24.6845   18.9462   30.1884 H   0  0  0  0  0  0  0  0  0  0  0  0
  -25.0593   17.3820   28.7989 C   0  0  0  0  0  0  0  0  0  0  0  0
  -25.6017   17.9779   28.1147 H   0  0  0  0  0  0  0  0  0  0  0  0
  1  2  2  0
  2  3  1  0
  2  6  1  0
  3  4  1  0
  3  5  1  0
  6  7  1  0
  6  8  1  0
  6  9  1  0
  9 10  1  0
  9 11  1  0
  9 12  1  0
 12 13  1  0
 12 20  1  0
 13 14  1  0
 13 18  2  0
 14 15  1  0
 14 16  1  0
 14 17  1  0
 18 19  1  0
 19 20  1  0
 19 27  2  0
 20 21  2  0
 21 22  1  0
 21 23  1  0
 23 24  1  0
 23 25  2  0
 25 26  1  0
 25 27  1  0
 27 28  1  0
M  END
$$$$
