F503_19
     RDKit          3D

 29 30  0  0  0  0  0  0  0  0999 V2000
  -19.9526   14.2136   28.0184 F   0  0  0  0  0  0  0  0  0  0  0  0
  -19.6577   13.8331   26.7660 C   0  0  0  0  0  0  0  0  0  0  0  0
  -19.2045   14.7826   25.8473 C   0  0  0  0  0  0  0  0  0  0  0  0
  -19.0250   16.2284   26.2361 C   0  0  0  0  0  0  0  0  0  0  0  0
  -19.6218   16.4570   27.1284 H   0  0  0  0  0  0  0  0  0  0  0  0
  -19.4574   16.8492   25.4398 H   0  0  0  0  0  0  0  0  0  0  0  0
  -17.5726   16.6259   26.4775 C   0  0  0  0  0  0  0  0  0  0  0  0
  -17.3046   18.0931   26.5898 C   0  0  0  0  0  0  0  0  0  0  0  0
  -17.7110   18.7820   27.5036 O   0  0  0  0  0  0  0  0  0  0  0  0
  -16.5818   18.6599   25.5925 N   0  0  0  0  0  0  0  0  0  0  0  0
  -16.3023   18.0691   24.8221 H   0  0  0  0  0  0  0  0  0  0  0  0
  -16.2174   20.0539   25.5769 C   0  0  0  0  0  0  0  0  0  0  0  0
  -17.1242   20.6589   25.4950 H   0  0  0  0  0  0  0  0  0  0  0  0
  -15.6941   20.3044   26.5030 H   0  0  0  0  0  0  0  0  0  0  0  0
  -15.5667   20.2365   24.7181 H   0  0  0  0  0  0  0  0  0  0  0  0
  -16.4203   15.7476   25.9808 C   0  0  0  0  0  0  0  0  0  0  0  0
  -15.4885   16.2319   25.7030 H   0  0  0  0  0  0  0  0  0  0  0  0
  -16.6234   14.8544   25.4028 H   0  0  0  0  0  0  0  0  0  0  0  0
  -16.7821   15.7231   27.4274 C   0  0  0  0  0  0  0  0  0  0  0  0
  -16.0996   16.1875   28.1309 H   0  0  0  0  0  0  0  0  0  0  0  0
  -17.2531   14.8258   27.8124 H   0  0  0  0  0  0  0  0  0  0  0  0
  -18.9193   14.3529   24.5507 C   0  0  0  0  0  0  0  0  0  0  0  0
  -18.5768   15.0436   23.8236 H   0  0  0  0  0  0  0  0  0  0  0  0
  -19.0856   13.0130   24.1984 C   0  0  0  0  0  0  0  0  0  0  0  0
  -18.8654   12.6975   23.2088 H   0  0  0  0  0  0  0  0  0  0  0  0
  -19.5377   12.0840   25.1348 C   0  0  0  0  0  0  0  0  0  0  0  0
  -19.6613   11.0674   24.8583 H   0  0  0  0  0  0  0  0  0  0  0  0
  -19.8278   12.4954   26.4315 C   0  0  0  0  0  0  0  0  0  0  0  0
  -20.1731   11.8053   27.1567 H   0  0  0  0  0  0  0  0  0  0  0  0
  1  2  1  0
  2  3  1  0
  2 28  2  0
  3  4  1  0
  3 22  2  0
  4  5  1  0
  4  6  1  0
  4  7  1  0
  7  8  1  0
  7 16  1  0
  7 19  1  0
  8  9  2  0
  8 10  1  0
 10 11  1  0
 10 12  1  0
 12 13  1  0
 12 14  1  0
 12 15  1  0
 16 17  1  0
 16 18  1  0
 16 19  1  0
 19 20  1  0
 19 21  1  0
 22 23  1  0
 22 24  1  0
 24 25  1  0
 24 26  2  0
 26 27  1  0
 26 28  1  0
 28 29  1  0
M  END
$$$$
