F741_57
     RDKit          3D

 25 27  0  0  0  0  0  0  0  0999 V2000
  -22.6305   12.9347   26.5073 O   0  0  0  0  0  0  0  0  0  0  0  0
  -22.3648   12.5682   27.6505 C   0  0  0  0  0  0  0  0  0  0  0  0
  -21.0754   12.2418   27.9471 N   0  0  0  0  0  0  0  0  0  0  0  0
  -20.9048   11.9542   28.9247 H   0  0  0  0  0  0  0  0  0  0  0  0
  -19.9932   12.2823   27.0214 C   0  0  0  0  0  0  0  0  0  0  0  0
  -20.1888   11.7135   26.1154 H   0  0  0  0  0  0  0  0  0  0  0  0
  -18.5687   12.2983   27.5063 C   0  0  0  0  0  0  0  0  0  0  0  0
  -18.3804   12.3220   28.5728 H   0  0  0  0  0  0  0  0  0  0  0  0
  -17.8366   11.7379   26.9369 H   0  0  0  0  0  0  0  0  0  0  0  0
  -19.1586   13.5243   26.8741 C   0  0  0  0  0  0  0  0  0  0  0  0
  -18.8323   13.7944   25.8772 H   0  0  0  0  0  0  0  0  0  0  0  0
  -19.3806   14.3702   27.5147 H   0  0  0  0  0  0  0  0  0  0  0  0
  -23.3312   12.4646   28.7191 C   0  0  0  0  0  0  0  0  0  0  0  0
  -24.5499   13.0934   28.7729 C   0  0  0  0  0  0  0  0  0  0  0  0
  -25.0942   12.6855   29.9678 N   0  0  0  0  0  0  0  0  0  0  0  0
  -24.2857   11.8375   30.6573 N   0  0  0  0  0  0  0  0  0  0  0  0
  -23.2286   11.7161   29.8908 C   0  0  0  0  0  0  0  0  0  0  0  0
  -22.3943   11.1109   30.1460 H   0  0  0  0  0  0  0  0  0  0  0  0
  -26.3568   13.1272   30.3826 C   0  0  0  0  0  0  0  0  0  0  0  0
  -26.6912   12.7595   31.3176 H   0  0  0  0  0  0  0  0  0  0  0  0
  -27.0068   13.9808   29.5332 C   0  0  0  0  0  0  0  0  0  0  0  0
  -27.9648   14.3601   29.7763 H   0  0  0  0  0  0  0  0  0  0  0  0
  -26.4059   14.3829   28.2949 C   0  0  0  0  0  0  0  0  0  0  0  0
  -26.9286   15.0453   27.6536 H   0  0  0  0  0  0  0  0  0  0  0  0
  -25.2288   13.9674   27.9133 N   0  0  0  0  0  0  0  0  0  0  0  0
  1  2  2  0
  2  3  1  0
  2 13  1  0
  3  4  1  0
  3  5  1  0
  5  6  1  0
  5  7  1  0
  5 10  1  0
  7  8  1  0
  7  9  1  0
  7 10  1  0
 10 11  1  0
 10 12  1  0
 13 14  2  0
 13 17  1  0
 14 15  1  0
 14 25  1  0
 15 16  1  0
 15 19  1  0
 16 17  2  0
 17 18  1  0
 19 20  1  0
 19 21  2  0
 21 22  1  0
 21 23  1  0
 23 24  1  0
 23 25  2  0
M  END
$$$$
