F309_66
     RDKit          3D

 14 14  0  0  0  0  0  0  0  0999 V2000
  -19.8344   10.9968   25.3266 O   0  0  0  0  0  0  0  0  0  0  0  0
  -19.6938   12.0822   24.6978 C   0  0  0  0  0  0  0  0  0  0  0  0
  -20.2206   12.2164   23.5537 O   0  0  0  0  0  0  0  0  0  0  0  0
  -18.9308   13.1742   25.2889 C   0  0  0  0  0  0  0  0  0  0  0  0
  -18.4502   13.2586   26.5850 C   0  0  0  0  0  0  0  0  0  0  0  0
  -18.6366   12.2068   27.6393 C   0  0  0  0  0  0  0  0  0  0  0  0
  -18.1691   12.5050   28.5832 H   0  0  0  0  0  0  0  0  0  0  0  0
  -18.1770   11.2629   27.3293 H   0  0  0  0  0  0  0  0  0  0  0  0
  -19.7012   12.0444   27.8386 H   0  0  0  0  0  0  0  0  0  0  0  0
  -17.7495   14.4493   26.8364 C   0  0  0  0  0  0  0  0  0  0  0  0
  -17.3103   14.6855   27.7707 H   0  0  0  0  0  0  0  0  0  0  0  0
  -17.6899   15.2752   25.7519 C   0  0  0  0  0  0  0  0  0  0  0  0
  -17.2220   16.2233   25.6882 H   0  0  0  0  0  0  0  0  0  0  0  0
  -18.4990   14.6019   24.3903 S   0  0  0  0  0  0  0  0  0  0  0  0
  1  2  1  0
  2  3  2  0
  2  4  1  0
  4  5  2  0
  4 14  1  0
  5  6  1  0
  5 10  1  0
  6  7  1  0
  6  8  1  0
  6  9  1  0
 10 11  1  0
 10 12  2  0
 12 13  1  0
 12 14  1  0
M  END
$$$$
