F618_26
     RDKit          3D

 26 26  0  0  0  0  0  0  0  0999 V2000
  -20.9667   10.4124   26.5932 F   0  0  0  0  0  0  0  0  0  0  0  0
  -21.4725   11.4575   27.2665 C   0  0  0  0  0  0  0  0  0  0  0  0
  -20.7448   12.6459   27.4604 C   0  0  0  0  0  0  0  0  0  0  0  0
  -19.4544   12.8221   26.9356 N   0  0  0  0  0  0  0  0  0  0  0  0
  -19.2670   13.8771   25.9118 C   0  0  0  0  0  0  0  0  0  0  0  0
  -18.9413   13.2645   24.5370 C   0  0  0  0  0  0  0  0  0  0  0  0
  -17.8630   13.0996   24.4375 H   0  0  0  0  0  0  0  0  0  0  0  0
  -19.2506   13.9229   23.7193 H   0  0  0  0  0  0  0  0  0  0  0  0
  -19.5936   12.0100   24.3508 O   0  0  0  0  0  0  0  0  0  0  0  0
  -20.5378   12.1947   24.5034 H   0  0  0  0  0  0  0  0  0  0  0  0
  -18.2114   14.9105   26.3238 C   0  0  0  0  0  0  0  0  0  0  0  0
  -18.2354   15.7655   25.6386 H   0  0  0  0  0  0  0  0  0  0  0  0
  -17.1942   14.5091   26.2944 H   0  0  0  0  0  0  0  0  0  0  0  0
  -18.4035   15.2867   27.3334 H   0  0  0  0  0  0  0  0  0  0  0  0
  -18.3445   11.9987   27.3930 C   0  0  0  0  0  0  0  0  0  0  0  0
  -18.0070   12.3190   28.3842 H   0  0  0  0  0  0  0  0  0  0  0  0
  -17.4832   12.0483   26.7203 H   0  0  0  0  0  0  0  0  0  0  0  0
  -18.6229   10.9385   27.4240 H   0  0  0  0  0  0  0  0  0  0  0  0
  -21.2613   13.6749   28.1497 N   0  0  0  0  0  0  0  0  0  0  0  0
  -22.4883   13.5474   28.6700 C   0  0  0  0  0  0  0  0  0  0  0  0
  -22.8787   14.3678   29.2156 H   0  0  0  0  0  0  0  0  0  0  0  0
  -23.2520   12.3886   28.5173 C   0  0  0  0  0  0  0  0  0  0  0  0
  -24.2181   12.3315   28.9465 H   0  0  0  0  0  0  0  0  0  0  0  0
  -22.7397   11.3119   27.7980 C   0  0  0  0  0  0  0  0  0  0  0  0
  -23.2908   10.4181   27.6588 H   0  0  0  0  0  0  0  0  0  0  0  0
  -20.1937   14.4578   25.8097 H   0  0  0  0  0  0  0  0  0  0  0  0
  1  2  1  0
  2  3  1  0
  2 24  2  0
  3  4  1  0
  3 19  2  0
  4  5  1  0
  4 15  1  0
  5  6  1  0
  5 11  1  0
  5 26  1  0
  6  7  1  0
  6  8  1  0
  6  9  1  0
  9 10  1  0
 11 12  1  0
 11 13  1  0
 11 14  1  0
 15 16  1  0
 15 17  1  0
 15 18  1  0
 19 20  1  0
 20 21  1  0
 20 22  2  0
 22 23  1  0
 22 24  1  0
 24 25  1  0
M  END
$$$$
