F11_87
     RDKit          3D

 16 17  0  0  0  0  0  0  0  0999 V2000
  -21.1335   13.1423   26.7313 Br  0  0  0  0  0  0  0  0  0  0  0  0
  -19.6566   13.4800   25.5925 C   0  0  0  0  0  0  0  0  0  0  0  0
  -18.6312   14.4141   25.9042 C   0  0  0  0  0  0  0  0  0  0  0  0
  -17.5823   14.5719   24.9664 C   0  0  0  0  0  0  0  0  0  0  0  0
  -17.5465   13.8584   23.8042 N   0  0  0  0  0  0  0  0  0  0  0  0
  -18.4935   13.0067   23.5338 C   0  0  0  0  0  0  0  0  0  0  0  0
  -18.4386   12.4647   22.6213 H   0  0  0  0  0  0  0  0  0  0  0  0
  -19.5738   12.7887   24.4100 C   0  0  0  0  0  0  0  0  0  0  0  0
  -20.3197   12.0841   24.1441 H   0  0  0  0  0  0  0  0  0  0  0  0
  -16.5565   15.4453   25.1818 N   0  0  0  0  0  0  0  0  0  0  0  0
  -16.5274   16.1590   26.2728 C   0  0  0  0  0  0  0  0  0  0  0  0
  -15.7164   16.8309   26.4131 H   0  0  0  0  0  0  0  0  0  0  0  0
  -17.5330   16.0622   27.2580 C   0  0  0  0  0  0  0  0  0  0  0  0
  -17.4631   16.6637   28.1277 H   0  0  0  0  0  0  0  0  0  0  0  0
  -18.5841   15.1981   27.0860 C   0  0  0  0  0  0  0  0  0  0  0  0
  -19.3404   15.1238   27.8242 H   0  0  0  0  0  0  0  0  0  0  0  0
  1  2  1  0
  2  3  1  0
  2  8  2  0
  3  4  1  0
  3 15  2  0
  4  5  1  0
  4 10  2  0
  5  6  2  0
  6  7  1  0
  6  8  1  0
  8  9  1  0
 10 11  1  0
 11 12  1  0
 11 13  2  0
 13 14  1  0
 13 15  1  0
 15 16  1  0
M  END
$$$$
