F366_99
     RDKit          3D

 22 22  0  0  0  0  0  0  0  0999 V2000
  -18.1769   12.6849   23.3216 O   0  0  0  0  0  0  0  0  0  0  0  0
  -17.3471   12.9671   23.7440 H   0  0  0  0  0  0  0  0  0  0  0  0
  -19.2349   13.0291   24.2118 C   0  0  0  0  0  0  0  0  0  0  0  0
  -19.1913   14.1049   24.4136 H   0  0  0  0  0  0  0  0  0  0  0  0
  -20.1788   12.8021   23.7060 H   0  0  0  0  0  0  0  0  0  0  0  0
  -19.1268   12.2102   25.4965 C   0  0  0  0  0  0  0  0  0  0  0  0
  -19.3546   11.1619   25.2675 H   0  0  0  0  0  0  0  0  0  0  0  0
  -18.0983   12.2454   25.8782 H   0  0  0  0  0  0  0  0  0  0  0  0
  -20.0553   12.6858   26.5693 C   0  0  0  0  0  0  0  0  0  0  0  0
  -21.0492   11.9848   27.1600 C   0  0  0  0  0  0  0  0  0  0  0  0
  -21.3946   10.9953   27.0136 H   0  0  0  0  0  0  0  0  0  0  0  0
  -21.6061   12.8197   28.0646 N   0  0  0  0  0  0  0  0  0  0  0  0
  -22.7073   12.5511   28.9638 C   0  0  0  0  0  0  0  0  0  0  0  0
  -23.3111   11.7509   28.5228 H   0  0  0  0  0  0  0  0  0  0  0  0
  -22.2860   12.1764   29.9030 H   0  0  0  0  0  0  0  0  0  0  0  0
  -23.5602   13.7831   29.2085 C   0  0  0  0  0  0  0  0  0  0  0  0
  -23.9861   14.1604   28.2715 H   0  0  0  0  0  0  0  0  0  0  0  0
  -22.9709   14.5909   29.6553 H   0  0  0  0  0  0  0  0  0  0  0  0
  -24.3851   13.5456   29.8873 H   0  0  0  0  0  0  0  0  0  0  0  0
  -21.0026   14.0343   28.0684 N   0  0  0  0  0  0  0  0  0  0  0  0
  -20.0652   13.9444   27.1642 C   0  0  0  0  0  0  0  0  0  0  0  0
  -19.4057   14.7417   26.9227 H   0  0  0  0  0  0  0  0  0  0  0  0
  1  2  1  0
  1  3  1  0
  3  4  1  0
  3  5  1  0
  3  6  1  0
  6  7  1  0
  6  8  1  0
  6  9  1  0
  9 10  2  0
  9 21  1  0
 10 11  1  0
 10 12  1  0
 12 13  1  0
 12 20  1  0
 13 14  1  0
 13 15  1  0
 13 16  1  0
 16 17  1  0
 16 18  1  0
 16 19  1  0
 20 21  2  0
 21 22  1  0
M  END
$$$$
