F709_23
     RDKit          3D

 29 30  0  0  0  0  0  0  0  0999 V2000
  -20.5685   10.3590   26.1511 O   0  0  0  0  0  0  0  0  0  0  0  0
  -20.6459   11.3298   26.8860 C   0  0  0  0  0  0  0  0  0  0  0  0
  -21.6732   11.4373   27.7313 N   0  0  0  0  0  0  0  0  0  0  0  0
  -22.4364   10.7736   27.5591 H   0  0  0  0  0  0  0  0  0  0  0  0
  -21.4414   11.6787   28.6979 H   0  0  0  0  0  0  0  0  0  0  0  0
  -19.7211   12.3402   26.9174 N   0  0  0  0  0  0  0  0  0  0  0  0
  -18.4593   12.1711   26.1911 C   0  0  0  0  0  0  0  0  0  0  0  0
  -18.4294   11.2164   25.6556 H   0  0  0  0  0  0  0  0  0  0  0  0
  -17.6594   12.1518   26.9413 H   0  0  0  0  0  0  0  0  0  0  0  0
  -18.2323   13.3225   25.2118 C   0  0  0  0  0  0  0  0  0  0  0  0
  -19.0086   13.3126   24.4371 H   0  0  0  0  0  0  0  0  0  0  0  0
  -17.2704   13.1969   24.7070 H   0  0  0  0  0  0  0  0  0  0  0  0
  -18.3309   14.6271   25.8836 N   0  0  0  0  0  0  0  0  0  0  0  0
  -17.3123   15.5650   25.7460 C   0  0  0  0  0  0  0  0  0  0  0  0
  -16.2393   15.1475   25.3094 O   0  0  0  0  0  0  0  0  0  0  0  0
  -17.5091   16.9519   26.1045 C   0  0  0  0  0  0  0  0  0  0  0  0
  -18.7378   17.5388   25.9825 O   0  0  0  0  0  0  0  0  0  0  0  0
  -18.6175   18.8392   26.3296 C   0  0  0  0  0  0  0  0  0  0  0  0
  -19.4640   19.4771   26.3155 H   0  0  0  0  0  0  0  0  0  0  0  0
  -17.3316   19.1054   26.6553 C   0  0  0  0  0  0  0  0  0  0  0  0
  -16.9467   20.0426   26.9631 H   0  0  0  0  0  0  0  0  0  0  0  0
  -16.6092   17.8986   26.4974 C   0  0  0  0  0  0  0  0  0  0  0  0
  -15.5723   17.7364   26.6488 H   0  0  0  0  0  0  0  0  0  0  0  0
  -19.5621   14.8177   26.6628 C   0  0  0  0  0  0  0  0  0  0  0  0
  -19.5154   15.7187   27.2770 H   0  0  0  0  0  0  0  0  0  0  0  0
  -20.3798   14.9293   25.9415 H   0  0  0  0  0  0  0  0  0  0  0  0
  -19.8459   13.6331   27.6050 C   0  0  0  0  0  0  0  0  0  0  0  0
  -20.8379   13.7707   28.0409 H   0  0  0  0  0  0  0  0  0  0  0  0
  -19.1157   13.6243   28.4234 H   0  0  0  0  0  0  0  0  0  0  0  0
  1  2  2  0
  2  3  1  0
  2  6  1  0
  3  4  1  0
  3  5  1  0
  6  7  1  0
  6 27  1  0
  7  8  1  0
  7  9  1  0
  7 10  1  0
 10 11  1  0
 10 12  1  0
 10 13  1  0
 13 14  1  0
 13 24  1  0
 14 15  2  0
 14 16  1  0
 16 17  1  0
 16 22  2  0
 17 18  1  0
 18 19  1  0
 18 20  2  0
 20 21  1  0
 20 22  1  0
 22 23  1  0
 24 25  1  0
 24 26  1  0
 24 27  1  0
 27 28  1  0
 27 29  1  0
M  END
$$$$
