F603_91
     RDKit          3D

 24 25  0  0  0  0  0  0  0  0999 V2000
  -23.1867   10.8307   31.6067 S   0  0  0  0  0  0  0  0  0  0  0  0
  -22.4827   11.2874   30.4247 O   0  0  0  0  0  0  0  0  0  0  0  0
  -23.6953    9.4715   31.6907 O   0  0  0  0  0  0  0  0  0  0  0  0
  -24.5470   11.9394   31.9357 C   0  0  0  0  0  0  0  0  0  0  0  0
  -25.3757   11.6572   31.2803 H   0  0  0  0  0  0  0  0  0  0  0  0
  -24.8401   11.8071   32.9808 H   0  0  0  0  0  0  0  0  0  0  0  0
  -24.1292   13.3424   31.6664 C   0  0  0  0  0  0  0  0  0  0  0  0
  -24.4653   14.0123   30.5214 N   0  0  0  0  0  0  0  0  0  0  0  0
  -24.9943   13.6332   29.7231 H   0  0  0  0  0  0  0  0  0  0  0  0
  -23.9763   15.2734   30.6123 C   0  0  0  0  0  0  0  0  0  0  0  0
  -23.3497   15.3198   31.8404 C   0  0  0  0  0  0  0  0  0  0  0  0
  -23.4634   14.1001   32.4733 N   0  0  0  0  0  0  0  0  0  0  0  0
  -22.7315   16.5105   32.2444 C   0  0  0  0  0  0  0  0  0  0  0  0
  -22.2473   16.5528   33.1847 H   0  0  0  0  0  0  0  0  0  0  0  0
  -22.7643   17.6122   31.3989 C   0  0  0  0  0  0  0  0  0  0  0  0
  -22.2993   18.5174   31.6938 H   0  0  0  0  0  0  0  0  0  0  0  0
  -23.4141   17.5395   30.1447 C   0  0  0  0  0  0  0  0  0  0  0  0
  -23.4280   18.3931   29.5147 H   0  0  0  0  0  0  0  0  0  0  0  0
  -24.0284   16.3664   29.7366 C   0  0  0  0  0  0  0  0  0  0  0  0
  -24.5177   16.2976   28.7994 H   0  0  0  0  0  0  0  0  0  0  0  0
  -22.1200   11.0927   33.0008 C   0  0  0  0  0  0  0  0  0  0  0  0
  -21.8078   12.1384   33.0135 H   0  0  0  0  0  0  0  0  0  0  0  0
  -21.2494   10.4429   32.8910 H   0  0  0  0  0  0  0  0  0  0  0  0
  -22.6626   10.8390   33.9141 H   0  0  0  0  0  0  0  0  0  0  0  0
  1  2  2  0
  1  3  2  0
  1  4  1  0
  1 21  1  0
  4  5  1  0
  4  6  1  0
  4  7  1  0
  7  8  1  0
  7 12  2  0
  8  9  1  0
  8 10  1  0
 10 11  1  0
 10 19  2  0
 11 12  1  0
 11 13  2  0
 13 14  1  0
 13 15  1  0
 15 16  1  0
 15 17  2  0
 17 18  1  0
 17 19  1  0
 19 20  1  0
 21 22  1  0
 21 23  1  0
 21 24  1  0
M  END
$$$$
