F95_69
     RDKit          3D

 27 27  0  0  0  0  0  0  0  0999 V2000
  -19.4338   11.3484   26.0924 S   0  0  0  0  0  0  0  0  0  0  0  0
  -19.8252   11.0490   24.7324 O   0  0  0  0  0  0  0  0  0  0  0  0
  -18.5404   10.4895   26.8385 O   0  0  0  0  0  0  0  0  0  0  0  0
  -20.8513   11.4897   26.9946 N   0  0  0  0  0  0  0  0  0  0  0  0
  -21.6889   11.4427   26.4096 H   0  0  0  0  0  0  0  0  0  0  0  0
  -20.8314   12.2974   27.6219 H   0  0  0  0  0  0  0  0  0  0  0  0
  -18.8133   12.9912   26.1516 C   0  0  0  0  0  0  0  0  0  0  0  0
  -18.0347   13.4202   27.2305 C   0  0  0  0  0  0  0  0  0  0  0  0
  -17.7909   12.7351   28.0055 H   0  0  0  0  0  0  0  0  0  0  0  0
  -17.5862   14.7339   27.3033 C   0  0  0  0  0  0  0  0  0  0  0  0
  -16.9999   15.0439   28.1315 H   0  0  0  0  0  0  0  0  0  0  0  0
  -17.9123   15.6442   26.2999 C   0  0  0  0  0  0  0  0  0  0  0  0
  -17.4875   17.0823   26.4140 C   0  0  0  0  0  0  0  0  0  0  0  0
  -17.4241   17.3886   27.4655 H   0  0  0  0  0  0  0  0  0  0  0  0
  -18.2163   17.7453   25.9317 H   0  0  0  0  0  0  0  0  0  0  0  0
  -16.1969   17.2809   25.7903 N   0  0  0  0  0  0  0  0  0  0  0  0
  -15.6500   16.4632   25.5824 H   0  0  0  0  0  0  0  0  0  0  0  0
  -15.7289   18.4855   25.4936 C   0  0  0  0  0  0  0  0  0  0  0  0
  -16.3619   19.5040   25.7284 O   0  0  0  0  0  0  0  0  0  0  0  0
  -14.3770   18.5029   24.8394 C   0  0  0  0  0  0  0  0  0  0  0  0
  -13.6646   17.9244   25.4345 H   0  0  0  0  0  0  0  0  0  0  0  0
  -14.4488   18.0703   23.8374 H   0  0  0  0  0  0  0  0  0  0  0  0
  -14.0179   19.5327   24.7619 H   0  0  0  0  0  0  0  0  0  0  0  0
  -18.6964   15.2273   25.2271 C   0  0  0  0  0  0  0  0  0  0  0  0
  -18.9620   15.9164   24.4650 H   0  0  0  0  0  0  0  0  0  0  0  0
  -19.1457   13.9125   25.1554 C   0  0  0  0  0  0  0  0  0  0  0  0
  -19.7538   13.6065   24.3400 H   0  0  0  0  0  0  0  0  0  0  0  0
  1  2  2  0
  1  3  2  0
  1  4  1  0
  1  7  1  0
  4  5  1  0
  4  6  1  0
  7  8  1  0
  7 26  2  0
  8  9  1  0
  8 10  2  0
 10 11  1  0
 10 12  1  0
 12 13  1  0
 12 24  2  0
 13 14  1  0
 13 15  1  0
 13 16  1  0
 16 17  1  0
 16 18  1  0
 18 19  2  0
 18 20  1  0
 20 21  1  0
 20 22  1  0
 20 23  1  0
 24 25  1  0
 24 26  1  0
 26 27  1  0
M  END
$$$$
