F467_76
     RDKit          3D

 24 24  0  0  0  0  0  0  0  0999 V2000
  -25.2515   13.1735   28.4567 O   0  0  0  0  0  0  0  0  0  0  0  0
  -25.3534   13.2857   29.4187 H   0  0  0  0  0  0  0  0  0  0  0  0
  -24.1511   13.9814   28.0562 C   0  0  0  0  0  0  0  0  0  0  0  0
  -24.0416   13.9083   26.9699 H   0  0  0  0  0  0  0  0  0  0  0  0
  -24.3887   15.0178   28.3153 H   0  0  0  0  0  0  0  0  0  0  0  0
  -22.8660   13.5556   28.7780 C   0  0  0  0  0  0  0  0  0  0  0  0
  -23.0431   13.4272   29.8523 H   0  0  0  0  0  0  0  0  0  0  0  0
  -22.1395   14.3743   28.7006 H   0  0  0  0  0  0  0  0  0  0  0  0
  -22.2691   12.3425   28.1766 N   0  0  0  0  0  0  0  0  0  0  0  0
  -23.0603   11.1207   28.3209 C   0  0  0  0  0  0  0  0  0  0  0  0
  -23.9146   11.2651   28.9930 H   0  0  0  0  0  0  0  0  0  0  0  0
  -22.4544   10.3137   28.7470 H   0  0  0  0  0  0  0  0  0  0  0  0
  -23.4588   10.8047   27.3507 H   0  0  0  0  0  0  0  0  0  0  0  0
  -21.0483   12.4154   27.5511 C   0  0  0  0  0  0  0  0  0  0  0  0
  -21.1073   12.5548   26.2185 N   0  0  0  0  0  0  0  0  0  0  0  0
  -22.0487   12.5759   25.8112 H   0  0  0  0  0  0  0  0  0  0  0  0
  -19.9970   12.6638   25.4293 C   0  0  0  0  0  0  0  0  0  0  0  0
  -20.1795   12.7723   24.3885 H   0  0  0  0  0  0  0  0  0  0  0  0
  -18.7515   12.6283   26.0114 C   0  0  0  0  0  0  0  0  0  0  0  0
  -17.8758   12.7120   25.4187 H   0  0  0  0  0  0  0  0  0  0  0  0
  -18.6352   12.4738   27.4041 C   0  0  0  0  0  0  0  0  0  0  0  0
  -17.6740   12.4358   27.8579 H   0  0  0  0  0  0  0  0  0  0  0  0
  -19.7714   12.3645   28.1699 C   0  0  0  0  0  0  0  0  0  0  0  0
  -19.6961   12.2297   29.2159 H   0  0  0  0  0  0  0  0  0  0  0  0
  1  2  1  0
  1  3  1  0
  3  4  1  0
  3  5  1  0
  3  6  1  0
  6  7  1  0
  6  8  1  0
  6  9  1  0
  9 10  1  0
  9 14  1  0
 10 11  1  0
 10 12  1  0
 10 13  1  0
 14 15  1  0
 14 23  2  0
 15 16  1  0
 15 17  2  0
 17 18  1  0
 17 19  1  0
 19 20  1  0
 19 21  2  0
 21 22  1  0
 21 23  1  0
 23 24  1  0
M  END
$$$$
