F650_90
     RDKit          3D

 23 24  0  0  0  0  0  0  0  0999 V2000
  -21.3485   11.7943   29.4539 O   0  0  0  0  0  0  0  0  0  0  0  0
  -21.6115   12.1750   28.3174 C   0  0  0  0  0  0  0  0  0  0  0  0
  -20.5474   12.5823   27.5294 N   0  0  0  0  0  0  0  0  0  0  0  0
  -20.5917   13.1715   26.1955 C   0  0  0  0  0  0  0  0  0  0  0  0
  -21.1444   12.5437   25.4957 H   0  0  0  0  0  0  0  0  0  0  0  0
  -21.0824   14.1473   26.2734 H   0  0  0  0  0  0  0  0  0  0  0  0
  -19.1325   13.3030   25.7748 C   0  0  0  0  0  0  0  0  0  0  0  0
  -18.8077   12.3874   25.2653 H   0  0  0  0  0  0  0  0  0  0  0  0
  -18.9633   14.1464   25.1015 H   0  0  0  0  0  0  0  0  0  0  0  0
  -18.3981   13.4386   27.0997 C   0  0  0  0  0  0  0  0  0  0  0  0
  -18.4787   14.4699   27.4639 H   0  0  0  0  0  0  0  0  0  0  0  0
  -17.3384   13.1786   27.0311 H   0  0  0  0  0  0  0  0  0  0  0  0
  -19.1749   12.5020   28.0102 C   0  0  0  0  0  0  0  0  0  0  0  0
  -19.0993   12.7839   29.0642 H   0  0  0  0  0  0  0  0  0  0  0  0
  -18.8423   11.4637   27.8955 H   0  0  0  0  0  0  0  0  0  0  0  0
  -22.9728   12.2634   27.8249 C   0  0  0  0  0  0  0  0  0  0  0  0
  -23.6659   11.2051   27.3165 C   0  0  0  0  0  0  0  0  0  0  0  0
  -23.3987   10.1867   27.1993 H   0  0  0  0  0  0  0  0  0  0  0  0
  -24.8598   11.6902   26.9398 N   0  0  0  0  0  0  0  0  0  0  0  0
  -25.6210   11.1299   26.5102 H   0  0  0  0  0  0  0  0  0  0  0  0
  -24.9686   13.0269   27.1772 N   0  0  0  0  0  0  0  0  0  0  0  0
  -23.8246   13.3640   27.7009 C   0  0  0  0  0  0  0  0  0  0  0  0
  -23.5876   14.3594   27.9784 H   0  0  0  0  0  0  0  0  0  0  0  0
  1  2  2  0
  2  3  1  0
  2 16  1  0
  3  4  1  0
  3 13  1  0
  4  5  1  0
  4  6  1  0
  4  7  1  0
  7  8  1  0
  7  9  1  0
  7 10  1  0
 10 11  1  0
 10 12  1  0
 10 13  1  0
 13 14  1  0
 13 15  1  0
 16 17  2  0
 16 22  1  0
 17 18  1  0
 17 19  1  0
 19 20  1  0
 19 21  1  0
 21 22  2  0
 22 23  1  0
M  END
$$$$
