F760_71
     RDKit          3D

 17 18  0  0  0  0  0  0  0  0999 V2000
  -21.9431   11.1068   27.4711 Br  0  0  0  0  0  0  0  0  0  0  0  0
  -20.7278   12.3858   26.7910 C   0  0  0  0  0  0  0  0  0  0  0  0
  -20.0511   12.1363   25.5993 C   0  0  0  0  0  0  0  0  0  0  0  0
  -20.2011   11.2381   25.0602 H   0  0  0  0  0  0  0  0  0  0  0  0
  -19.1683   13.1054   25.1418 C   0  0  0  0  0  0  0  0  0  0  0  0
  -18.3929   13.0725   23.9923 N   0  0  0  0  0  0  0  0  0  0  0  0
  -18.3466   12.3221   23.2924 H   0  0  0  0  0  0  0  0  0  0  0  0
  -17.6516   14.1992   23.8721 C   0  0  0  0  0  0  0  0  0  0  0  0
  -16.9091   14.3551   22.9312 O   0  0  0  0  0  0  0  0  0  0  0  0
  -17.9403   15.1136   25.0603 C   0  0  0  0  0  0  0  0  0  0  0  0
  -17.0274   15.2701   25.6394 H   0  0  0  0  0  0  0  0  0  0  0  0
  -18.3732   16.0530   24.7086 H   0  0  0  0  0  0  0  0  0  0  0  0
  -18.9401   14.2904   25.8118 C   0  0  0  0  0  0  0  0  0  0  0  0
  -19.6169   14.5407   27.0006 C   0  0  0  0  0  0  0  0  0  0  0  0
  -19.4575   15.4453   27.5314 H   0  0  0  0  0  0  0  0  0  0  0  0
  -20.5118   13.5844   27.4882 C   0  0  0  0  0  0  0  0  0  0  0  0
  -21.0333   13.7638   28.3927 H   0  0  0  0  0  0  0  0  0  0  0  0
  1  2  1  0
  2  3  1  0
  2 16  2  0
  3  4  1  0
  3  5  2  0
  5  6  1  0
  5 13  1  0
  6  7  1  0
  6  8  1  0
  8  9  2  0
  8 10  1  0
 10 11  1  0
 10 12  1  0
 10 13  1  0
 13 14  2  0
 14 15  1  0
 14 16  1  0
 16 17  1  0
M  END
$$$$
