F368_38
     RDKit          3D

 29 30  0  0  0  0  0  0  0  0999 V2000
  -22.8405   13.4863   27.4645 O   0  0  0  0  0  0  0  0  0  0  0  0
  -22.5353   12.8122   28.4303 C   0  0  0  0  0  0  0  0  0  0  0  0
  -21.2299   12.4840   28.6764 N   0  0  0  0  0  0  0  0  0  0  0  0
  -21.0740   11.9024   29.5078 H   0  0  0  0  0  0  0  0  0  0  0  0
  -20.1082   12.8386   27.9381 C   0  0  0  0  0  0  0  0  0  0  0  0
  -20.0568   13.6299   26.8466 C   0  0  0  0  0  0  0  0  0  0  0  0
  -20.8080   14.1480   26.3132 H   0  0  0  0  0  0  0  0  0  0  0  0
  -18.7453   13.6625   26.5024 N   0  0  0  0  0  0  0  0  0  0  0  0
  -18.1402   14.3672   25.3931 C   0  0  0  0  0  0  0  0  0  0  0  0
  -18.7346   15.2697   25.2097 H   0  0  0  0  0  0  0  0  0  0  0  0
  -17.1387   14.6833   25.7044 H   0  0  0  0  0  0  0  0  0  0  0  0
  -18.0604   13.5096   24.1431 C   0  0  0  0  0  0  0  0  0  0  0  0
  -17.5922   14.0690   23.3275 H   0  0  0  0  0  0  0  0  0  0  0  0
  -17.4686   12.6064   24.3232 H   0  0  0  0  0  0  0  0  0  0  0  0
  -19.0569   13.1963   23.8146 H   0  0  0  0  0  0  0  0  0  0  0  0
  -17.9716   12.9193   27.3480 N   0  0  0  0  0  0  0  0  0  0  0  0
  -18.8113   12.4206   28.2178 C   0  0  0  0  0  0  0  0  0  0  0  0
  -18.5191   11.7882   29.0156 H   0  0  0  0  0  0  0  0  0  0  0  0
  -23.5428   12.2458   29.4745 C   0  0  0  0  0  0  0  0  0  0  0  0
  -23.5365   11.1455   29.5074 H   0  0  0  0  0  0  0  0  0  0  0  0
  -23.4819   12.8366   30.9102 C   0  0  0  0  0  0  0  0  0  0  0  0
  -23.1152   13.8675   30.9617 H   0  0  0  0  0  0  0  0  0  0  0  0
  -22.9450   12.2324   31.6472 H   0  0  0  0  0  0  0  0  0  0  0  0
  -25.0171   12.7218   30.9550 C   0  0  0  0  0  0  0  0  0  0  0  0
  -25.5410   13.5377   31.4587 H   0  0  0  0  0  0  0  0  0  0  0  0
  -25.3756   11.7654   31.3524 H   0  0  0  0  0  0  0  0  0  0  0  0
  -24.9994   12.7840   29.4159 C   0  0  0  0  0  0  0  0  0  0  0  0
  -25.0912   13.8006   29.0151 H   0  0  0  0  0  0  0  0  0  0  0  0
  -25.7225   12.1380   28.9118 H   0  0  0  0  0  0  0  0  0  0  0  0
  1  2  2  0
  2  3  1  0
  2 19  1  0
  3  4  1  0
  3  5  1  0
  5  6  2  0
  5 17  1  0
  6  7  1  0
  6  8  1  0
  8  9  1  0
  8 16  1  0
  9 10  1  0
  9 11  1  0
  9 12  1  0
 12 13  1  0
 12 14  1  0
 12 15  1  0
 16 17  2  0
 17 18  1  0
 19 20  1  0
 19 21  1  0
 19 27  1  0
 21 22  1  0
 21 23  1  0
 21 24  1  0
 24 25  1  0
 24 26  1  0
 24 27  1  0
 27 28  1  0
 27 29  1  0
M  END
$$$$
