F126_31
     RDKit          3D

 23 23  0  0  0  0  0  0  0  0999 V2000
  -14.5715   18.2002   24.8059 Cl  0  0  0  0  0  0  0  0  0  0  0  0
  -16.0817   18.7462   25.4272 C   0  0  0  0  0  0  0  0  0  0  0  0
  -16.9649   17.9286   26.1504 C   0  0  0  0  0  0  0  0  0  0  0  0
  -16.7425   16.5061   26.4847 C   0  0  0  0  0  0  0  0  0  0  0  0
  -15.7784   15.8008   26.2274 O   0  0  0  0  0  0  0  0  0  0  0  0
  -17.7179   15.8559   27.1676 N   0  0  0  0  0  0  0  0  0  0  0  0
  -17.5748   14.8652   27.3985 H   0  0  0  0  0  0  0  0  0  0  0  0
  -18.5766   16.3566   27.4292 H   0  0  0  0  0  0  0  0  0  0  0  0
  -18.1279   18.4705   26.5918 N   0  0  0  0  0  0  0  0  0  0  0  0
  -18.4211   19.7378   26.3442 C   0  0  0  0  0  0  0  0  0  0  0  0
  -19.7268   20.2906   26.8570 C   0  0  0  0  0  0  0  0  0  0  0  0
  -19.5896   21.3593   27.0652 H   0  0  0  0  0  0  0  0  0  0  0  0
  -20.8268   20.1569   25.8056 C   0  0  0  0  0  0  0  0  0  0  0  0
  -21.0349   19.1073   25.5663 H   0  0  0  0  0  0  0  0  0  0  0  0
  -20.5414   20.6584   24.8737 H   0  0  0  0  0  0  0  0  0  0  0  0
  -21.7584   20.6108   26.1599 H   0  0  0  0  0  0  0  0  0  0  0  0
  -20.1302   19.6094   28.1647 C   0  0  0  0  0  0  0  0  0  0  0  0
  -20.3099   18.5375   28.0251 H   0  0  0  0  0  0  0  0  0  0  0  0
  -21.0482   20.0536   28.5651 H   0  0  0  0  0  0  0  0  0  0  0  0
  -19.3460   19.7185   28.9215 H   0  0  0  0  0  0  0  0  0  0  0  0
  -17.5960   20.5335   25.6573 N   0  0  0  0  0  0  0  0  0  0  0  0
  -16.4483   20.0676   25.2008 C   0  0  0  0  0  0  0  0  0  0  0  0
  -15.8076   20.7159   24.6577 H   0  0  0  0  0  0  0  0  0  0  0  0
  1  2  1  0
  2  3  1  0
  2 22  2  0
  3  4  1  0
  3  9  2  0
  4  5  2  0
  4  6  1  0
  6  7  1  0
  6  8  1  0
  9 10  1  0
 10 11  1  0
 10 21  2  0
 11 12  1  0
 11 13  1  0
 11 17  1  0
 13 14  1  0
 13 15  1  0
 13 16  1  0
 17 18  1  0
 17 19  1  0
 17 20  1  0
 21 22  1  0
 22 23  1  0
M  END
$$$$
