F126_76
     RDKit          3D

 23 23  0  0  0  0  0  0  0  0999 V2000
  -20.3777   11.6486   26.2242 Cl  0  0  0  0  0  0  0  0  0  0  0  0
  -19.6755   13.2132   26.3781 C   0  0  0  0  0  0  0  0  0  0  0  0
  -18.8001   13.7678   25.4306 C   0  0  0  0  0  0  0  0  0  0  0  0
  -18.3553   13.1125   24.1827 C   0  0  0  0  0  0  0  0  0  0  0  0
  -18.9303   12.2654   23.5156 O   0  0  0  0  0  0  0  0  0  0  0  0
  -17.1485   13.4689   23.6754 N   0  0  0  0  0  0  0  0  0  0  0  0
  -16.8282   13.0139   22.8120 H   0  0  0  0  0  0  0  0  0  0  0  0
  -16.5783   14.1712   24.1636 H   0  0  0  0  0  0  0  0  0  0  0  0
  -18.3094   15.0121   25.6590 N   0  0  0  0  0  0  0  0  0  0  0  0
  -18.6475   15.6836   26.7489 C   0  0  0  0  0  0  0  0  0  0  0  0
  -18.0738   17.0627   26.9547 C   0  0  0  0  0  0  0  0  0  0  0  0
  -17.7684   17.1550   28.0047 H   0  0  0  0  0  0  0  0  0  0  0  0
  -16.8340   17.2732   26.0874 C   0  0  0  0  0  0  0  0  0  0  0  0
  -17.0718   17.2188   25.0184 H   0  0  0  0  0  0  0  0  0  0  0  0
  -16.0751   16.5105   26.2967 H   0  0  0  0  0  0  0  0  0  0  0  0
  -16.3874   18.2540   26.2819 H   0  0  0  0  0  0  0  0  0  0  0  0
  -19.1262   18.1368   26.6796 C   0  0  0  0  0  0  0  0  0  0  0  0
  -19.4598   18.1198   25.6361 H   0  0  0  0  0  0  0  0  0  0  0  0
  -18.7238   19.1346   26.8865 H   0  0  0  0  0  0  0  0  0  0  0  0
  -20.0083   17.9921   27.3125 H   0  0  0  0  0  0  0  0  0  0  0  0
  -19.4780   15.1749   27.6639 N   0  0  0  0  0  0  0  0  0  0  0  0
  -19.9907   13.9694   27.5009 C   0  0  0  0  0  0  0  0  0  0  0  0
  -20.6480   13.5840   28.2392 H   0  0  0  0  0  0  0  0  0  0  0  0
  1  2  1  0
  2  3  1  0
  2 22  2  0
  3  4  1  0
  3  9  2  0
  4  5  2  0
  4  6  1  0
  6  7  1  0
  6  8  1  0
  9 10  1  0
 10 11  1  0
 10 21  2  0
 11 12  1  0
 11 13  1  0
 11 17  1  0
 13 14  1  0
 13 15  1  0
 13 16  1  0
 17 18  1  0
 17 19  1  0
 17 20  1  0
 21 22  1  0
 22 23  1  0
M  END
$$$$
