F367_23
     RDKit          3D

 31 32  0  0  0  0  0  0  0  0999 V2000
  -20.1119   13.2610   28.2941 O   0  0  0  0  0  0  0  0  0  0  0  0
  -20.3490   13.0805   27.1068 C   0  0  0  0  0  0  0  0  0  0  0  0
  -21.5834   12.5953   26.7934 N   0  0  0  0  0  0  0  0  0  0  0  0
  -21.8747   12.5135   25.8121 H   0  0  0  0  0  0  0  0  0  0  0  0
  -22.5415   12.2129   27.8110 C   0  0  0  0  0  0  0  0  0  0  0  0
  -22.0164   12.1300   28.7696 H   0  0  0  0  0  0  0  0  0  0  0  0
  -22.9443   11.2249   27.5606 H   0  0  0  0  0  0  0  0  0  0  0  0
  -23.6172   13.2374   27.8781 C   0  0  0  0  0  0  0  0  0  0  0  0
  -23.8349   14.1301   28.8724 C   0  0  0  0  0  0  0  0  0  0  0  0
  -23.3239   14.3113   29.7807 H   0  0  0  0  0  0  0  0  0  0  0  0
  -24.9224   14.8414   28.5000 N   0  0  0  0  0  0  0  0  0  0  0  0
  -25.5712   15.9207   29.2143 C   0  0  0  0  0  0  0  0  0  0  0  0
  -26.1300   15.4810   30.0478 H   0  0  0  0  0  0  0  0  0  0  0  0
  -24.7862   16.5575   29.6356 H   0  0  0  0  0  0  0  0  0  0  0  0
  -26.4991   16.7250   28.3219 C   0  0  0  0  0  0  0  0  0  0  0  0
  -27.2827   16.0896   27.8949 H   0  0  0  0  0  0  0  0  0  0  0  0
  -25.9515   17.1817   27.4910 H   0  0  0  0  0  0  0  0  0  0  0  0
  -26.9795   17.5239   28.8947 H   0  0  0  0  0  0  0  0  0  0  0  0
  -25.4021   14.4309   27.2989 N   0  0  0  0  0  0  0  0  0  0  0  0
  -24.6102   13.4608   26.9323 C   0  0  0  0  0  0  0  0  0  0  0  0
  -24.7273   12.9306   26.0210 H   0  0  0  0  0  0  0  0  0  0  0  0
  -19.3863   13.4071   26.0372 C   0  0  0  0  0  0  0  0  0  0  0  0
  -19.5256   12.7571   24.8044 C   0  0  0  0  0  0  0  0  0  0  0  0
  -20.3069   12.0509   24.6680 H   0  0  0  0  0  0  0  0  0  0  0  0
  -18.7042   12.9861   23.7778 N   0  0  0  0  0  0  0  0  0  0  0  0
  -17.7132   13.8657   23.9085 C   0  0  0  0  0  0  0  0  0  0  0  0
  -17.0769   14.0260   23.0744 H   0  0  0  0  0  0  0  0  0  0  0  0
  -17.5083   14.5625   25.0963 C   0  0  0  0  0  0  0  0  0  0  0  0
  -16.7152   15.2599   25.1686 H   0  0  0  0  0  0  0  0  0  0  0  0
  -18.3501   14.3388   26.1783 C   0  0  0  0  0  0  0  0  0  0  0  0
  -18.2070   14.8725   27.0814 H   0  0  0  0  0  0  0  0  0  0  0  0
  1  2  2  0
  2  3  1  0
  2 22  1  0
  3  4  1  0
  3  5  1  0
  5  6  1  0
  5  7  1  0
  5  8  1  0
  8  9  2  0
  8 20  1  0
  9 10  1  0
  9 11  1  0
 11 12  1  0
 11 19  1  0
 12 13  1  0
 12 14  1  0
 12 15  1  0
 15 16  1  0
 15 17  1  0
 15 18  1  0
 19 20  2  0
 20 21  1  0
 22 23  1  0
 22 30  2  0
 23 24  1  0
 23 25  2  0
 25 26  1  0
 26 27  1  0
 26 28  2  0
 28 29  1  0
 28 30  1  0
 30 31  1  0
M  END
$$$$
