F275_24
     RDKit          3D

 20 20  0  0  0  0  0  0  0  0999 V2000
  -23.0317   11.4113   27.8721 S   0  0  0  0  0  0  0  0  0  0  0  0
  -22.9684   10.0691   28.4032 O   0  0  0  0  0  0  0  0  0  0  0  0
  -23.9426   11.7749   26.8084 O   0  0  0  0  0  0  0  0  0  0  0  0
  -21.4783   11.8123   27.3531 N   0  0  0  0  0  0  0  0  0  0  0  0
  -21.2830   11.4653   26.4113 H   0  0  0  0  0  0  0  0  0  0  0  0
  -21.2707   12.8062   27.4801 H   0  0  0  0  0  0  0  0  0  0  0  0
  -23.2571   12.5345   29.2088 C   0  0  0  0  0  0  0  0  0  0  0  0
  -23.7203   13.8321   28.9715 C   0  0  0  0  0  0  0  0  0  0  0  0
  -23.9192   14.1631   27.9851 H   0  0  0  0  0  0  0  0  0  0  0  0
  -23.9216   14.6818   30.0487 C   0  0  0  0  0  0  0  0  0  0  0  0
  -24.3625   15.9265   29.8146 F   0  0  0  0  0  0  0  0  0  0  0  0
  -23.6900   14.2909   31.3589 C   0  0  0  0  0  0  0  0  0  0  0  0
  -23.8601   14.9713   32.1533 H   0  0  0  0  0  0  0  0  0  0  0  0
  -23.2391   12.9962   31.6054 C   0  0  0  0  0  0  0  0  0  0  0  0
  -23.0241   12.5242   33.0137 C   0  0  0  0  0  0  0  0  0  0  0  0
  -22.7324   13.3546   33.6653 H   0  0  0  0  0  0  0  0  0  0  0  0
  -22.2218   11.7804   33.0576 H   0  0  0  0  0  0  0  0  0  0  0  0
  -23.9430   12.0756   33.4022 H   0  0  0  0  0  0  0  0  0  0  0  0
  -23.0324   12.1262   30.5309 C   0  0  0  0  0  0  0  0  0  0  0  0
  -22.7034   11.1330   30.7131 H   0  0  0  0  0  0  0  0  0  0  0  0
  1  2  2  0
  1  3  2  0
  1  4  1  0
  1  7  1  0
  4  5  1  0
  4  6  1  0
  7  8  1  0
  7 19  2  0
  8  9  1  0
  8 10  2  0
 10 11  1  0
 10 12  1  0
 12 13  1  0
 12 14  2  0
 14 15  1  0
 14 19  1  0
 15 16  1  0
 15 17  1  0
 15 18  1  0
 19 20  1  0
M  END
$$$$
