F421_89
     RDKit          3D

 19 19  0  0  0  0  0  0  0  0999 V2000
  -20.0559   14.8293   26.6625 O   0  0  0  0  0  0  0  0  0  0  0  0
  -19.6108   13.7732   26.2190 C   0  0  0  0  0  0  0  0  0  0  0  0
  -20.0562   12.6020   26.8291 N   0  0  0  0  0  0  0  0  0  0  0  0
  -20.7395   12.6675   28.1138 C   0  0  0  0  0  0  0  0  0  0  0  0
  -20.2856   11.9383   28.7926 H   0  0  0  0  0  0  0  0  0  0  0  0
  -21.7934   12.4175   27.9613 H   0  0  0  0  0  0  0  0  0  0  0  0
  -20.6706   13.6569   28.5723 H   0  0  0  0  0  0  0  0  0  0  0  0
  -19.9186   11.2689   26.2577 C   0  0  0  0  0  0  0  0  0  0  0  0
  -20.8458   10.7105   26.4228 H   0  0  0  0  0  0  0  0  0  0  0  0
  -19.0943   10.7561   26.7616 H   0  0  0  0  0  0  0  0  0  0  0  0
  -19.7369   11.3051   25.1817 H   0  0  0  0  0  0  0  0  0  0  0  0
  -18.6730   13.7320   25.1119 C   0  0  0  0  0  0  0  0  0  0  0  0
  -17.7612   12.7381   24.9153 C   0  0  0  0  0  0  0  0  0  0  0  0
  -17.5379   11.8725   25.4831 H   0  0  0  0  0  0  0  0  0  0  0  0
  -17.1213   13.0411   23.7734 N   0  0  0  0  0  0  0  0  0  0  0  0
  -16.3620   12.4751   23.3492 H   0  0  0  0  0  0  0  0  0  0  0  0
  -17.5877   14.1912   23.2150 N   0  0  0  0  0  0  0  0  0  0  0  0
  -18.5270   14.5940   24.0228 C   0  0  0  0  0  0  0  0  0  0  0  0
  -19.1015   15.4695   23.8479 H   0  0  0  0  0  0  0  0  0  0  0  0
  1  2  2  0
  2  3  1  0
  2 12  1  0
  3  4  1  0
  3  8  1  0
  4  5  1  0
  4  6  1  0
  4  7  1  0
  8  9  1  0
  8 10  1  0
  8 11  1  0
 12 13  2  0
 12 18  1  0
 13 14  1  0
 13 15  1  0
 15 16  1  0
 15 17  1  0
 17 18  2  0
 18 19  1  0
M  END
$$$$
