F760_35
     RDKit          3D

 17 18  0  0  0  0  0  0  0  0999 V2000
  -13.4004   18.7235   27.0891 Br  0  0  0  0  0  0  0  0  0  0  0  0
  -15.1242   17.9697   26.8999 C   0  0  0  0  0  0  0  0  0  0  0  0
  -15.2993   16.8199   26.1334 C   0  0  0  0  0  0  0  0  0  0  0  0
  -14.4826   16.3537   25.6481 H   0  0  0  0  0  0  0  0  0  0  0  0
  -16.5842   16.3054   26.0237 C   0  0  0  0  0  0  0  0  0  0  0  0
  -16.9915   15.1820   25.3195 N   0  0  0  0  0  0  0  0  0  0  0  0
  -16.4053   14.5481   24.7630 H   0  0  0  0  0  0  0  0  0  0  0  0
  -18.3257   14.9870   25.4424 C   0  0  0  0  0  0  0  0  0  0  0  0
  -18.8687   14.0549   24.8969 O   0  0  0  0  0  0  0  0  0  0  0  0
  -18.9101   16.0877   26.3245 C   0  0  0  0  0  0  0  0  0  0  0  0
  -19.6354   16.6741   25.7558 H   0  0  0  0  0  0  0  0  0  0  0  0
  -19.3475   15.6487   27.2242 H   0  0  0  0  0  0  0  0  0  0  0  0
  -17.6788   16.8801   26.6375 C   0  0  0  0  0  0  0  0  0  0  0  0
  -17.5041   18.0270   27.4044 C   0  0  0  0  0  0  0  0  0  0  0  0
  -18.3312   18.4847   27.8858 H   0  0  0  0  0  0  0  0  0  0  0  0
  -16.2229   18.5701   27.5337 C   0  0  0  0  0  0  0  0  0  0  0  0
  -16.0772   19.4435   28.1153 H   0  0  0  0  0  0  0  0  0  0  0  0
  1  2  1  0
  2  3  1  0
  2 16  2  0
  3  4  1  0
  3  5  2  0
  5  6  1  0
  5 13  1  0
  6  7  1  0
  6  8  1  0
  8  9  2  0
  8 10  1  0
 10 11  1  0
 10 12  1  0
 10 13  1  0
 13 14  2  0
 14 15  1  0
 14 16  1  0
 16 17  1  0
M  END
$$$$
