F710_64
     RDKit          3D

 30 31  0  0  0  0  0  0  0  0999 V2000
  -25.6081   12.1506   29.8922 F   0  0  0  0  0  0  0  0  0  0  0  0
  -24.4294   12.2944   29.2695 C   0  0  0  0  0  0  0  0  0  0  0  0
  -24.4128   12.7779   27.9666 C   0  0  0  0  0  0  0  0  0  0  0  0
  -25.3193   13.0234   27.4781 H   0  0  0  0  0  0  0  0  0  0  0  0
  -23.1896   12.9257   27.3207 C   0  0  0  0  0  0  0  0  0  0  0  0
  -23.1504   13.2731   26.3224 H   0  0  0  0  0  0  0  0  0  0  0  0
  -22.0020   12.5932   27.9872 C   0  0  0  0  0  0  0  0  0  0  0  0
  -20.7804   12.7389   27.3425 N   0  0  0  0  0  0  0  0  0  0  0  0
  -20.1801   11.6552   26.5528 C   0  0  0  0  0  0  0  0  0  0  0  0
  -19.2758   11.3022   27.0633 H   0  0  0  0  0  0  0  0  0  0  0  0
  -20.8526   10.7981   26.4362 H   0  0  0  0  0  0  0  0  0  0  0  0
  -19.8275   12.1729   25.1495 C   0  0  0  0  0  0  0  0  0  0  0  0
  -20.7458   12.4157   24.6011 H   0  0  0  0  0  0  0  0  0  0  0  0
  -19.3127   11.3878   24.5861 H   0  0  0  0  0  0  0  0  0  0  0  0
  -19.0327   13.4069   25.1997 N   0  0  0  0  0  0  0  0  0  0  0  0
  -17.8387   13.4523   24.5331 C   0  0  0  0  0  0  0  0  0  0  0  0
  -17.2973   12.4779   24.0389 O   0  0  0  0  0  0  0  0  0  0  0  0
  -17.2671   14.6541   24.4239 N   0  0  0  0  0  0  0  0  0  0  0  0
  -16.3149   14.7061   24.8012 H   0  0  0  0  0  0  0  0  0  0  0  0
  -17.4901   15.1828   23.5779 H   0  0  0  0  0  0  0  0  0  0  0  0
  -19.6368   14.4778   26.0125 C   0  0  0  0  0  0  0  0  0  0  0  0
  -18.9704   15.3370   26.1121 H   0  0  0  0  0  0  0  0  0  0  0  0
  -20.5409   14.8057   25.4870 H   0  0  0  0  0  0  0  0  0  0  0  0
  -19.9895   13.9741   27.4221 C   0  0  0  0  0  0  0  0  0  0  0  0
  -20.4876   14.7703   27.9856 H   0  0  0  0  0  0  0  0  0  0  0  0
  -19.0631   13.7478   27.9654 H   0  0  0  0  0  0  0  0  0  0  0  0
  -22.0411   12.1020   29.3026 C   0  0  0  0  0  0  0  0  0  0  0  0
  -21.1497   11.8560   29.8138 H   0  0  0  0  0  0  0  0  0  0  0  0
  -23.2651   11.9537   29.9475 C   0  0  0  0  0  0  0  0  0  0  0  0
  -23.3176   11.5895   30.9401 H   0  0  0  0  0  0  0  0  0  0  0  0
  1  2  1  0
  2  3  1  0
  2 29  2  0
  3  4  1  0
  3  5  2  0
  5  6  1  0
  5  7  1  0
  7  8  1  0
  7 27  2  0
  8  9  1  0
  8 24  1  0
  9 10  1  0
  9 11  1  0
  9 12  1  0
 12 13  1  0
 12 14  1  0
 12 15  1  0
 15 16  1  0
 15 21  1  0
 16 17  2  0
 16 18  1  0
 18 19  1  0
 18 20  1  0
 21 22  1  0
 21 23  1  0
 21 24  1  0
 24 25  1  0
 24 26  1  0
 27 28  1  0
 27 29  1  0
 29 30  1  0
M  END
$$$$
