F467_34
     RDKit          3D

 24 24  0  0  0  0  0  0  0  0999 V2000
  -19.7671   12.6106   28.4240 O   0  0  0  0  0  0  0  0  0  0  0  0
  -19.3100   11.7805   28.1996 H   0  0  0  0  0  0  0  0  0  0  0  0
  -19.6826   13.4556   27.2825 C   0  0  0  0  0  0  0  0  0  0  0  0
  -20.2587   13.0028   26.4698 H   0  0  0  0  0  0  0  0  0  0  0  0
  -20.1406   14.4143   27.5447 H   0  0  0  0  0  0  0  0  0  0  0  0
  -18.2212   13.6817   26.8740 C   0  0  0  0  0  0  0  0  0  0  0  0
  -17.7428   12.7377   26.5877 H   0  0  0  0  0  0  0  0  0  0  0  0
  -17.6671   14.0313   27.7544 H   0  0  0  0  0  0  0  0  0  0  0  0
  -18.0955   14.7001   25.8078 N   0  0  0  0  0  0  0  0  0  0  0  0
  -18.3988   14.2293   24.4566 C   0  0  0  0  0  0  0  0  0  0  0  0
  -18.5284   13.1409   24.4234 H   0  0  0  0  0  0  0  0  0  0  0  0
  -17.5822   14.4725   23.7681 H   0  0  0  0  0  0  0  0  0  0  0  0
  -19.3290   14.6794   24.0931 H   0  0  0  0  0  0  0  0  0  0  0  0
  -17.7040   15.9787   26.1220 C   0  0  0  0  0  0  0  0  0  0  0  0
  -16.4424   16.0875   26.5640 N   0  0  0  0  0  0  0  0  0  0  0  0
  -15.9150   15.2103   26.6346 H   0  0  0  0  0  0  0  0  0  0  0  0
  -15.8714   17.2809   26.9060 C   0  0  0  0  0  0  0  0  0  0  0  0
  -14.8639   17.2317   27.2393 H   0  0  0  0  0  0  0  0  0  0  0  0
  -16.6110   18.4355   26.8009 C   0  0  0  0  0  0  0  0  0  0  0  0
  -16.1881   19.3732   27.0599 H   0  0  0  0  0  0  0  0  0  0  0  0
  -17.9420   18.3743   26.3518 C   0  0  0  0  0  0  0  0  0  0  0  0
  -18.5213   19.2633   26.2783 H   0  0  0  0  0  0  0  0  0  0  0  0
  -18.4881   17.1579   26.0177 C   0  0  0  0  0  0  0  0  0  0  0  0
  -19.4934   17.0973   25.6962 H   0  0  0  0  0  0  0  0  0  0  0  0
  1  2  1  0
  1  3  1  0
  3  4  1  0
  3  5  1  0
  3  6  1  0
  6  7  1  0
  6  8  1  0
  6  9  1  0
  9 10  1  0
  9 14  1  0
 10 11  1  0
 10 12  1  0
 10 13  1  0
 14 15  1  0
 14 23  2  0
 15 16  1  0
 15 17  2  0
 17 18  1  0
 17 19  1  0
 19 20  1  0
 19 21  2  0
 21 22  1  0
 21 23  1  0
 23 24  1  0
M  END
$$$$
