F503_85
     RDKit          3D

 29 30  0  0  0  0  0  0  0  0999 V2000
  -20.0031   12.3032   29.3300 F   0  0  0  0  0  0  0  0  0  0  0  0
  -19.7644   12.3118   28.0096 C   0  0  0  0  0  0  0  0  0  0  0  0
  -20.7366   12.8077   27.1379 C   0  0  0  0  0  0  0  0  0  0  0  0
  -22.0478   13.3486   27.6497 C   0  0  0  0  0  0  0  0  0  0  0  0
  -22.6462   13.7402   26.8171 H   0  0  0  0  0  0  0  0  0  0  0  0
  -21.8310   14.2230   28.2782 H   0  0  0  0  0  0  0  0  0  0  0  0
  -22.8695   12.3318   28.4352 C   0  0  0  0  0  0  0  0  0  0  0  0
  -23.0095   12.5942   29.9010 C   0  0  0  0  0  0  0  0  0  0  0  0
  -22.5044   11.8988   30.7589 O   0  0  0  0  0  0  0  0  0  0  0  0
  -23.7625   13.6627   30.2609 N   0  0  0  0  0  0  0  0  0  0  0  0
  -24.2099   14.1902   29.5245 H   0  0  0  0  0  0  0  0  0  0  0  0
  -23.9637   14.0598   31.6313 C   0  0  0  0  0  0  0  0  0  0  0  0
  -24.5203   13.2761   32.1519 H   0  0  0  0  0  0  0  0  0  0  0  0
  -22.9945   14.2021   32.1158 H   0  0  0  0  0  0  0  0  0  0  0  0
  -24.5302   14.9942   31.6459 H   0  0  0  0  0  0  0  0  0  0  0  0
  -22.9631   10.8721   27.9810 C   0  0  0  0  0  0  0  0  0  0  0  0
  -23.0884   10.1052   28.7401 H   0  0  0  0  0  0  0  0  0  0  0  0
  -22.4013   10.5300   27.1205 H   0  0  0  0  0  0  0  0  0  0  0  0
  -24.1125   11.7878   27.7273 C   0  0  0  0  0  0  0  0  0  0  0  0
  -25.0160   11.6446   28.3102 H   0  0  0  0  0  0  0  0  0  0  0  0
  -24.3036   12.0821   26.7016 H   0  0  0  0  0  0  0  0  0  0  0  0
  -20.4585   12.7896   25.7708 C   0  0  0  0  0  0  0  0  0  0  0  0
  -21.1721   13.1535   25.0769 H   0  0  0  0  0  0  0  0  0  0  0  0
  -19.2422   12.2896   25.3042 C   0  0  0  0  0  0  0  0  0  0  0  0
  -19.0415   12.2809   24.2616 H   0  0  0  0  0  0  0  0  0  0  0  0
  -18.2869   11.8018   26.1953 C   0  0  0  0  0  0  0  0  0  0  0  0
  -17.3649   11.4236   25.8320 H   0  0  0  0  0  0  0  0  0  0  0  0
  -18.5482   11.8114   27.5615 C   0  0  0  0  0  0  0  0  0  0  0  0
  -17.8361   11.4446   28.2541 H   0  0  0  0  0  0  0  0  0  0  0  0
  1  2  1  0
  2  3  1  0
  2 28  2  0
  3  4  1  0
  3 22  2  0
  4  5  1  0
  4  6  1  0
  4  7  1  0
  7  8  1  0
  7 16  1  0
  7 19  1  0
  8  9  2  0
  8 10  1  0
 10 11  1  0
 10 12  1  0
 12 13  1  0
 12 14  1  0
 12 15  1  0
 16 17  1  0
 16 18  1  0
 16 19  1  0
 19 20  1  0
 19 21  1  0
 22 23  1  0
 22 24  1  0
 24 25  1  0
 24 26  2  0
 26 27  1  0
 26 28  1  0
 28 29  1  0
M  END
$$$$
