F467_41
     RDKit          3D

 24 24  0  0  0  0  0  0  0  0999 V2000
  -16.8030   13.9045   23.4983 O   0  0  0  0  0  0  0  0  0  0  0  0
  -16.2089   13.2672   23.0633 H   0  0  0  0  0  0  0  0  0  0  0  0
  -17.9271   13.1719   23.9716 C   0  0  0  0  0  0  0  0  0  0  0  0
  -18.4245   12.7048   23.1161 H   0  0  0  0  0  0  0  0  0  0  0  0
  -17.5547   12.3838   24.6334 H   0  0  0  0  0  0  0  0  0  0  0  0
  -18.8873   14.0814   24.7491 C   0  0  0  0  0  0  0  0  0  0  0  0
  -19.8969   13.6547   24.7763 H   0  0  0  0  0  0  0  0  0  0  0  0
  -18.9874   15.0264   24.2004 H   0  0  0  0  0  0  0  0  0  0  0  0
  -18.3869   14.3811   26.1090 N   0  0  0  0  0  0  0  0  0  0  0  0
  -18.6694   13.3594   27.1169 C   0  0  0  0  0  0  0  0  0  0  0  0
  -19.3491   12.5878   26.7361 H   0  0  0  0  0  0  0  0  0  0  0  0
  -19.1526   13.8027   27.9944 H   0  0  0  0  0  0  0  0  0  0  0  0
  -17.7455   12.8572   27.4237 H   0  0  0  0  0  0  0  0  0  0  0  0
  -17.7225   15.5584   26.3525 C   0  0  0  0  0  0  0  0  0  0  0  0
  -16.5494   15.6837   25.7145 N   0  0  0  0  0  0  0  0  0  0  0  0
  -16.2690   14.8877   25.1311 H   0  0  0  0  0  0  0  0  0  0  0  0
  -15.7575   16.7925   25.8187 C   0  0  0  0  0  0  0  0  0  0  0  0
  -14.8538   16.7684   25.2607 H   0  0  0  0  0  0  0  0  0  0  0  0
  -16.1654   17.8386   26.6128 C   0  0  0  0  0  0  0  0  0  0  0  0
  -15.5674   18.7096   26.7079 H   0  0  0  0  0  0  0  0  0  0  0  0
  -17.3830   17.7527   27.3108 C   0  0  0  0  0  0  0  0  0  0  0  0
  -17.6980   18.5549   27.9341 H   0  0  0  0  0  0  0  0  0  0  0  0
  -18.1556   16.6225   27.1867 C   0  0  0  0  0  0  0  0  0  0  0  0
  -19.0642   16.5390   27.7209 H   0  0  0  0  0  0  0  0  0  0  0  0
  1  2  1  0
  1  3  1  0
  3  4  1  0
  3  5  1  0
  3  6  1  0
  6  7  1  0
  6  8  1  0
  6  9  1  0
  9 10  1  0
  9 14  1  0
 10 11  1  0
 10 12  1  0
 10 13  1  0
 14 15  1  0
 14 23  2  0
 15 16  1  0
 15 17  2  0
 17 18  1  0
 17 19  1  0
 19 20  1  0
 19 21  2  0
 21 22  1  0
 21 23  1  0
 23 24  1  0
M  END
$$$$
