F763_22
     RDKit          3D

 19 19  0  0  0  0  0  0  0  0999 V2000
  -16.1171   20.6001   26.9176 Br  0  0  0  0  0  0  0  0  0  0  0  0
  -16.7997   18.8606   26.8402 C   0  0  0  0  0  0  0  0  0  0  0  0
  -16.0702   17.8013   27.2865 C   0  0  0  0  0  0  0  0  0  0  0  0
  -15.1005   17.9277   27.6871 H   0  0  0  0  0  0  0  0  0  0  0  0
  -16.5936   16.4743   27.2239 C   0  0  0  0  0  0  0  0  0  0  0  0
  -15.9753   15.4678   27.5935 O   0  0  0  0  0  0  0  0  0  0  0  0
  -17.8806   16.3051   26.7036 N   0  0  0  0  0  0  0  0  0  0  0  0
  -18.4616   14.9636   26.6265 C   0  0  0  0  0  0  0  0  0  0  0  0
  -17.9393   14.3009   27.3273 H   0  0  0  0  0  0  0  0  0  0  0  0
  -19.5051   14.9870   26.9668 H   0  0  0  0  0  0  0  0  0  0  0  0
  -18.3760   14.3772   25.2185 C   0  0  0  0  0  0  0  0  0  0  0  0
  -17.3416   14.3260   24.8631 H   0  0  0  0  0  0  0  0  0  0  0  0
  -18.9386   14.9959   24.5114 H   0  0  0  0  0  0  0  0  0  0  0  0
  -18.9305   13.0671   25.1931 O   0  0  0  0  0  0  0  0  0  0  0  0
  -19.8591   13.1394   25.4780 H   0  0  0  0  0  0  0  0  0  0  0  0
  -18.6224   17.3874   26.2430 C   0  0  0  0  0  0  0  0  0  0  0  0
  -19.5858   17.1595   25.8567 H   0  0  0  0  0  0  0  0  0  0  0  0
  -18.1015   18.6462   26.3066 C   0  0  0  0  0  0  0  0  0  0  0  0
  -18.6596   19.4775   25.9588 H   0  0  0  0  0  0  0  0  0  0  0  0
  1  2  1  0
  2  3  2  0
  2 18  1  0
  3  4  1  0
  3  5  1  0
  5  6  2  0
  5  7  1  0
  7  8  1  0
  7 16  1  0
  8  9  1  0
  8 10  1  0
  8 11  1  0
 11 12  1  0
 11 13  1  0
 11 14  1  0
 14 15  1  0
 16 17  1  0
 16 18  2  0
 18 19  1  0
M  END
$$$$
