F95_77
     RDKit          3D

 27 27  0  0  0  0  0  0  0  0999 V2000
  -18.3822   13.6116   24.8191 S   0  0  0  0  0  0  0  0  0  0  0  0
  -17.4496   12.5399   24.5467 O   0  0  0  0  0  0  0  0  0  0  0  0
  -19.0718   14.3142   23.7592 O   0  0  0  0  0  0  0  0  0  0  0  0
  -17.5534   14.7699   25.7219 N   0  0  0  0  0  0  0  0  0  0  0  0
  -18.1104   15.6141   25.8733 H   0  0  0  0  0  0  0  0  0  0  0  0
  -16.6186   14.9539   25.3495 H   0  0  0  0  0  0  0  0  0  0  0  0
  -19.5704   13.0427   25.9818 C   0  0  0  0  0  0  0  0  0  0  0  0
  -20.0309   11.7233   25.9421 C   0  0  0  0  0  0  0  0  0  0  0  0
  -19.6338   11.0515   25.2208 H   0  0  0  0  0  0  0  0  0  0  0  0
  -21.0083   11.2865   26.8288 C   0  0  0  0  0  0  0  0  0  0  0  0
  -21.3497   10.2830   26.7819 H   0  0  0  0  0  0  0  0  0  0  0  0
  -21.5464   12.1631   27.7690 C   0  0  0  0  0  0  0  0  0  0  0  0
  -22.6536   11.7106   28.6805 C   0  0  0  0  0  0  0  0  0  0  0  0
  -22.3171   11.6921   29.7245 H   0  0  0  0  0  0  0  0  0  0  0  0
  -22.9749   10.6920   28.4305 H   0  0  0  0  0  0  0  0  0  0  0  0
  -23.7934   12.5957   28.5721 N   0  0  0  0  0  0  0  0  0  0  0  0
  -23.8687   13.1575   27.7417 H   0  0  0  0  0  0  0  0  0  0  0  0
  -24.7184   12.6820   29.5181 C   0  0  0  0  0  0  0  0  0  0  0  0
  -24.6648   12.0162   30.5414 O   0  0  0  0  0  0  0  0  0  0  0  0
  -25.8365   13.6435   29.2332 C   0  0  0  0  0  0  0  0  0  0  0  0
  -25.4301   14.6243   28.9701 H   0  0  0  0  0  0  0  0  0  0  0  0
  -26.4417   13.2668   28.4036 H   0  0  0  0  0  0  0  0  0  0  0  0
  -26.4673   13.7490   30.1200 H   0  0  0  0  0  0  0  0  0  0  0  0
  -21.1004   13.4818   27.8079 C   0  0  0  0  0  0  0  0  0  0  0  0
  -21.5139   14.1610   28.5108 H   0  0  0  0  0  0  0  0  0  0  0  0
  -20.1228   13.9186   26.9195 C   0  0  0  0  0  0  0  0  0  0  0  0
  -19.7977   14.9295   26.9480 H   0  0  0  0  0  0  0  0  0  0  0  0
  1  2  2  0
  1  3  2  0
  1  4  1  0
  1  7  1  0
  4  5  1  0
  4  6  1  0
  7  8  1  0
  7 26  2  0
  8  9  1  0
  8 10  2  0
 10 11  1  0
 10 12  1  0
 12 13  1  0
 12 24  2  0
 13 14  1  0
 13 15  1  0
 13 16  1  0
 16 17  1  0
 16 18  1  0
 18 19  2  0
 18 20  1  0
 20 21  1  0
 20 22  1  0
 20 23  1  0
 24 25  1  0
 24 26  1  0
 26 27  1  0
M  END
$$$$
