F501_71
     RDKit          3D

 23 24  0  0  0  0  0  0  0  0999 V2000
  -22.9758   10.3826   31.2422 C   0  0  0  0  0  0  0  0  0  0  0  0
  -23.6631   10.8190   31.9716 H   0  0  0  0  0  0  0  0  0  0  0  0
  -21.9455   10.6437   31.4948 H   0  0  0  0  0  0  0  0  0  0  0  0
  -23.1014    9.2974   31.2302 H   0  0  0  0  0  0  0  0  0  0  0  0
  -23.2643   10.8982   29.9317 N   0  0  0  0  0  0  0  0  0  0  0  0
  -22.7734   10.2777   28.8488 N   0  0  0  0  0  0  0  0  0  0  0  0
  -23.1646   10.9476   27.7907 N   0  0  0  0  0  0  0  0  0  0  0  0
  -23.9061   11.9850   28.2308 C   0  0  0  0  0  0  0  0  0  0  0  0
  -23.9853   11.9610   29.5708 C   0  0  0  0  0  0  0  0  0  0  0  0
  -24.7291   12.9156   30.4338 C   0  0  0  0  0  0  0  0  0  0  0  0
  -25.6371   12.4133   30.7916 H   0  0  0  0  0  0  0  0  0  0  0  0
  -24.1399   13.1741   31.3189 H   0  0  0  0  0  0  0  0  0  0  0  0
  -25.1451   14.1626   29.6157 C   0  0  0  0  0  0  0  0  0  0  0  0
  -24.0548   15.2375   29.6692 C   0  0  0  0  0  0  0  0  0  0  0  0
  -24.4234   16.4123   29.8917 O   0  0  0  0  0  0  0  0  0  0  0  0
  -22.8764   14.8857   29.4470 O   0  0  0  0  0  0  0  0  0  0  0  0
  -25.5978   13.7970   28.1781 C   0  0  0  0  0  0  0  0  0  0  0  0
  -26.5010   13.1760   28.2550 H   0  0  0  0  0  0  0  0  0  0  0  0
  -25.8878   14.6938   27.6179 H   0  0  0  0  0  0  0  0  0  0  0  0
  -24.5321   13.0171   27.3759 C   0  0  0  0  0  0  0  0  0  0  0  0
  -23.7569   13.7008   27.0119 H   0  0  0  0  0  0  0  0  0  0  0  0
  -24.9986   12.5560   26.4978 H   0  0  0  0  0  0  0  0  0  0  0  0
  -26.0037   14.6206   30.1258 H   0  0  0  0  0  0  0  0  0  0  0  0
  1  2  1  0
  1  3  1  0
  1  4  1  0
  1  5  1  0
  5  6  1  0
  5  9  1  0
  6  7  2  0
  7  8  1  0
  8  9  2  0
  8 20  1  0
  9 10  1  0
 10 11  1  0
 10 12  1  0
 10 13  1  0
 13 14  1  0
 13 17  1  0
 13 23  1  0
 14 15  1  0
 14 16  2  0
 17 18  1  0
 17 19  1  0
 17 20  1  0
 20 21  1  0
 20 22  1  0
M  END
$$$$
