F488_86
     RDKit          3D

 39 40  0  0  0  0  0  0  0  0999 V2000
  -21.0693   12.1649   24.9388 O   0  0  0  0  0  0  0  0  0  0  0  0
  -20.7707   12.5363   26.0694 C   0  0  0  0  0  0  0  0  0  0  0  0
  -21.7532   12.3656   27.2271 C   0  0  0  0  0  0  0  0  0  0  0  0
  -22.5644   11.7199   26.8702 H   0  0  0  0  0  0  0  0  0  0  0  0
  -21.2785   11.8122   28.0466 H   0  0  0  0  0  0  0  0  0  0  0  0
  -22.3413   13.5659   27.7004 O   0  0  0  0  0  0  0  0  0  0  0  0
  -23.4376   13.4873   28.5209 C   0  0  0  0  0  0  0  0  0  0  0  0
  -24.7157   13.9552   28.2184 C   0  0  0  0  0  0  0  0  0  0  0  0
  -24.9207   14.4294   27.2945 H   0  0  0  0  0  0  0  0  0  0  0  0
  -25.7375   13.7988   29.1497 C   0  0  0  0  0  0  0  0  0  0  0  0
  -26.7126   14.1480   28.9212 H   0  0  0  0  0  0  0  0  0  0  0  0
  -25.4871   13.1894   30.3795 C   0  0  0  0  0  0  0  0  0  0  0  0
  -26.6016   12.9939   31.3677 C   0  0  0  0  0  0  0  0  0  0  0  0
  -27.0865   12.0279   31.1954 H   0  0  0  0  0  0  0  0  0  0  0  0
  -26.2241   13.0233   32.3943 H   0  0  0  0  0  0  0  0  0  0  0  0
  -27.3504   13.7870   31.2742 H   0  0  0  0  0  0  0  0  0  0  0  0
  -24.2007   12.7350   30.6738 C   0  0  0  0  0  0  0  0  0  0  0  0
  -24.0011   12.2762   31.6073 H   0  0  0  0  0  0  0  0  0  0  0  0
  -23.1737   12.8867   29.7474 C   0  0  0  0  0  0  0  0  0  0  0  0
  -22.1944   12.5508   29.9719 H   0  0  0  0  0  0  0  0  0  0  0  0
  -19.5618   13.1217   26.2715 N   0  0  0  0  0  0  0  0  0  0  0  0
  -18.5661   13.1508   25.1903 C   0  0  0  0  0  0  0  0  0  0  0  0
  -17.7562   12.4738   25.4907 H   0  0  0  0  0  0  0  0  0  0  0  0
  -18.9747   12.7633   24.2522 H   0  0  0  0  0  0  0  0  0  0  0  0
  -18.0120   14.5585   24.9567 C   0  0  0  0  0  0  0  0  0  0  0  0
  -18.7905   15.2462   24.6102 H   0  0  0  0  0  0  0  0  0  0  0  0
  -17.1850   14.5375   24.2411 H   0  0  0  0  0  0  0  0  0  0  0  0
  -17.4685   15.1155   26.2635 N   0  0  0  0  0  0  0  0  0  0  0  0
  -16.7207   14.4833   26.5830 H   0  0  0  0  0  0  0  0  0  0  0  0
  -16.8403   16.4659   26.0766 C   0  0  0  0  0  0  0  0  0  0  0  0
  -16.4230   16.7808   27.0367 H   0  0  0  0  0  0  0  0  0  0  0  0
  -16.0413   16.3679   25.3364 H   0  0  0  0  0  0  0  0  0  0  0  0
  -17.6076   17.1651   25.7346 H   0  0  0  0  0  0  0  0  0  0  0  0
  -18.5439   15.1343   27.3360 C   0  0  0  0  0  0  0  0  0  0  0  0
  -19.3177   15.8348   27.0041 H   0  0  0  0  0  0  0  0  0  0  0  0
  -18.0831   15.5004   28.2585 H   0  0  0  0  0  0  0  0  0  0  0  0
  -19.1210   13.7250   27.5367 C   0  0  0  0  0  0  0  0  0  0  0  0
  -19.9365   13.7913   28.2585 H   0  0  0  0  0  0  0  0  0  0  0  0
  -18.3565   13.0607   27.9583 H   0  0  0  0  0  0  0  0  0  0  0  0
  1  2  2  0
  2  3  1  0
  2 21  1  0
  3  4  1  0
  3  5  1  0
  3  6  1  0
  6  7  1  0
  7  8  1  0
  7 19  2  0
  8  9  1  0
  8 10  2  0
 10 11  1  0
 10 12  1  0
 12 13  1  0
 12 17  2  0
 13 14  1  0
 13 15  1  0
 13 16  1  0
 17 18  1  0
 17 19  1  0
 19 20  1  0
 21 22  1  0
 21 37  1  0
 22 23  1  0
 22 24  1  0
 22 25  1  0
 25 26  1  0
 25 27  1  0
 25 28  1  0
 28 29  1  0
 28 30  1  0
 28 34  1  0
 30 31  1  0
 30 32  1  0
 30 33  1  0
 34 35  1  0
 34 36  1  0
 34 37  1  0
 37 38  1  0
 37 39  1  0
M  END
$$$$
