F421_51
     RDKit          3D

 19 19  0  0  0  0  0  0  0  0999 V2000
  -19.5055   17.0899   27.4310 O   0  0  0  0  0  0  0  0  0  0  0  0
  -18.6165   16.4204   26.9099 C   0  0  0  0  0  0  0  0  0  0  0  0
  -17.3681   17.0274   26.7859 N   0  0  0  0  0  0  0  0  0  0  0  0
  -17.2406   18.4675   26.9629 C   0  0  0  0  0  0  0  0  0  0  0  0
  -16.6691   18.8771   26.1236 H   0  0  0  0  0  0  0  0  0  0  0  0
  -16.7043   18.6578   27.8970 H   0  0  0  0  0  0  0  0  0  0  0  0
  -18.2100   18.9702   26.9996 H   0  0  0  0  0  0  0  0  0  0  0  0
  -16.1267   16.3153   26.5130 C   0  0  0  0  0  0  0  0  0  0  0  0
  -15.3304   16.7296   27.1401 H   0  0  0  0  0  0  0  0  0  0  0  0
  -15.8669   16.4568   25.4600 H   0  0  0  0  0  0  0  0  0  0  0  0
  -16.2111   15.2505   26.7394 H   0  0  0  0  0  0  0  0  0  0  0  0
  -18.8391   15.0624   26.4481 C   0  0  0  0  0  0  0  0  0  0  0  0
  -19.7004   14.1839   27.0348 C   0  0  0  0  0  0  0  0  0  0  0  0
  -20.3197   14.2774   27.8887 H   0  0  0  0  0  0  0  0  0  0  0  0
  -19.6519   13.0644   26.2934 N   0  0  0  0  0  0  0  0  0  0  0  0
  -20.1978   12.2023   26.4821 H   0  0  0  0  0  0  0  0  0  0  0  0
  -18.7970   13.1838   25.2413 N   0  0  0  0  0  0  0  0  0  0  0  0
  -18.3202   14.3924   25.3379 C   0  0  0  0  0  0  0  0  0  0  0  0
  -17.6291   14.7968   24.6409 H   0  0  0  0  0  0  0  0  0  0  0  0
  1  2  2  0
  2  3  1  0
  2 12  1  0
  3  4  1  0
  3  8  1  0
  4  5  1  0
  4  6  1  0
  4  7  1  0
  8  9  1  0
  8 10  1  0
  8 11  1  0
 12 13  2  0
 12 18  1  0
 13 14  1  0
 13 15  1  0
 15 16  1  0
 15 17  1  0
 17 18  2  0
 18 19  1  0
M  END
$$$$
