F421_17
     RDKit          3D

 19 19  0  0  0  0  0  0  0  0999 V2000
  -19.5358   16.6196   27.3761 O   0  0  0  0  0  0  0  0  0  0  0  0
  -18.5566   16.0327   26.9213 C   0  0  0  0  0  0  0  0  0  0  0  0
  -17.3990   16.7891   26.7486 N   0  0  0  0  0  0  0  0  0  0  0  0
  -17.4685   18.2433   26.7956 C   0  0  0  0  0  0  0  0  0  0  0  0
  -16.9433   18.6502   25.9254 H   0  0  0  0  0  0  0  0  0  0  0  0
  -16.9780   18.5864   27.7111 H   0  0  0  0  0  0  0  0  0  0  0  0
  -18.4970   18.6118   26.7827 H   0  0  0  0  0  0  0  0  0  0  0  0
  -16.0689   16.2298   26.5464 C   0  0  0  0  0  0  0  0  0  0  0  0
  -15.3459   16.8017   27.1372 H   0  0  0  0  0  0  0  0  0  0  0  0
  -15.8131   16.3110   25.4861 H   0  0  0  0  0  0  0  0  0  0  0  0
  -16.0137   15.1877   26.8676 H   0  0  0  0  0  0  0  0  0  0  0  0
  -18.5875   14.6215   26.5828 C   0  0  0  0  0  0  0  0  0  0  0  0
  -17.9724   14.0801   25.4936 C   0  0  0  0  0  0  0  0  0  0  0  0
  -17.4112   14.5265   24.7144 H   0  0  0  0  0  0  0  0  0  0  0  0
  -18.1979   12.7571   25.5587 N   0  0  0  0  0  0  0  0  0  0  0  0
  -17.8580   12.0614   24.8677 H   0  0  0  0  0  0  0  0  0  0  0  0
  -18.9303   12.4159   26.6538 N   0  0  0  0  0  0  0  0  0  0  0  0
  -19.1517   13.5432   27.2681 C   0  0  0  0  0  0  0  0  0  0  0  0
  -19.6911   13.6064   28.1804 H   0  0  0  0  0  0  0  0  0  0  0  0
  1  2  2  0
  2  3  1  0
  2 12  1  0
  3  4  1  0
  3  8  1  0
  4  5  1  0
  4  6  1  0
  4  7  1  0
  8  9  1  0
  8 10  1  0
  8 11  1  0
 12 13  2  0
 12 18  1  0
 13 14  1  0
 13 15  1  0
 15 16  1  0
 15 17  1  0
 17 18  2  0
 18 19  1  0
M  END
$$$$
