F389_0
     RDKit          3D

 18 18  0  0  0  0  0  0  0  0999 V2000
  -23.3967   13.8226   29.7749 O   0  0  0  0  0  0  0  0  0  0  0  0
  -23.7422   12.7611   29.2761 C   0  0  0  0  0  0  0  0  0  0  0  0
  -23.6018   11.5393   29.8714 O   0  0  0  0  0  0  0  0  0  0  0  0
  -23.0709   11.5387   31.2059 C   0  0  0  0  0  0  0  0  0  0  0  0
  -23.7036   12.2045   31.8023 H   0  0  0  0  0  0  0  0  0  0  0  0
  -22.0559   11.9506   31.2299 H   0  0  0  0  0  0  0  0  0  0  0  0
  -23.1163   10.1375   31.7840 C   0  0  0  0  0  0  0  0  0  0  0  0
  -22.4901    9.4527   31.2033 H   0  0  0  0  0  0  0  0  0  0  0  0
  -24.1360    9.7402   31.7512 H   0  0  0  0  0  0  0  0  0  0  0  0
  -22.7695   10.1343   32.8212 H   0  0  0  0  0  0  0  0  0  0  0  0
  -24.3522   12.6739   27.9619 C   0  0  0  0  0  0  0  0  0  0  0  0
  -24.4397   11.5744   27.1597 C   0  0  0  0  0  0  0  0  0  0  0  0
  -24.1050   10.5779   27.2926 H   0  0  0  0  0  0  0  0  0  0  0  0
  -25.0832   11.9775   26.0517 N   0  0  0  0  0  0  0  0  0  0  0  0
  -25.3101   11.3721   25.2383 H   0  0  0  0  0  0  0  0  0  0  0  0
  -25.4162   13.2961   26.1049 N   0  0  0  0  0  0  0  0  0  0  0  0
  -24.9718   13.7083   27.2587 C   0  0  0  0  0  0  0  0  0  0  0  0
  -25.0773   14.7064   27.6031 H   0  0  0  0  0  0  0  0  0  0  0  0
  1  2  2  0
  2  3  1  0
  2 11  1  0
  3  4  1  0
  4  5  1  0
  4  6  1  0
  4  7  1  0
  7  8  1  0
  7  9  1  0
  7 10  1  0
 11 12  2  0
 11 17  1  0
 12 13  1  0
 12 14  1  0
 14 15  1  0
 14 16  1  0
 16 17  2  0
 17 18  1  0
M  END
$$$$
