F618_10
     RDKit          3D

 26 26  0  0  0  0  0  0  0  0999 V2000
  -22.3961   10.5156   28.7654 F   0  0  0  0  0  0  0  0  0  0  0  0
  -23.1787   10.6075   29.8520 C   0  0  0  0  0  0  0  0  0  0  0  0
  -23.9696   11.7420   30.1108 C   0  0  0  0  0  0  0  0  0  0  0  0
  -24.0109   12.8363   29.2321 N   0  0  0  0  0  0  0  0  0  0  0  0
  -25.1640   12.9310   28.3059 C   0  0  0  0  0  0  0  0  0  0  0  0
  -24.7237   12.7084   26.8471 C   0  0  0  0  0  0  0  0  0  0  0  0
  -23.9010   13.3838   26.5886 H   0  0  0  0  0  0  0  0  0  0  0  0
  -25.5414   12.9017   26.1458 H   0  0  0  0  0  0  0  0  0  0  0  0
  -24.2759   11.3719   26.6296 O   0  0  0  0  0  0  0  0  0  0  0  0
  -25.0906   10.8399   26.5852 H   0  0  0  0  0  0  0  0  0  0  0  0
  -25.9305   14.2504   28.4598 C   0  0  0  0  0  0  0  0  0  0  0  0
  -26.8723   14.2049   27.9011 H   0  0  0  0  0  0  0  0  0  0  0  0
  -25.3738   15.1091   28.0734 H   0  0  0  0  0  0  0  0  0  0  0  0
  -26.1742   14.4426   29.5093 H   0  0  0  0  0  0  0  0  0  0  0  0
  -22.9582   13.8418   29.2432 C   0  0  0  0  0  0  0  0  0  0  0  0
  -23.0656   14.5057   30.1073 H   0  0  0  0  0  0  0  0  0  0  0  0
  -22.9682   14.4663   28.3451 H   0  0  0  0  0  0  0  0  0  0  0  0
  -21.9651   13.3769   29.2576 H   0  0  0  0  0  0  0  0  0  0  0  0
  -24.7343   11.8224   31.2106 N   0  0  0  0  0  0  0  0  0  0  0  0
  -24.7221   10.8015   32.0768 C   0  0  0  0  0  0  0  0  0  0  0  0
  -25.3278   10.8839   32.9425 H   0  0  0  0  0  0  0  0  0  0  0  0
  -23.9498    9.6557   31.8761 C   0  0  0  0  0  0  0  0  0  0  0  0
  -23.9706    8.8725   32.5882 H   0  0  0  0  0  0  0  0  0  0  0  0
  -23.1560    9.5468   30.7373 C   0  0  0  0  0  0  0  0  0  0  0  0
  -22.5595    8.6919   30.5499 H   0  0  0  0  0  0  0  0  0  0  0  0
  -25.9003   12.1555   28.5566 H   0  0  0  0  0  0  0  0  0  0  0  0
  1  2  1  0
  2  3  1  0
  2 24  2  0
  3  4  1  0
  3 19  2  0
  4  5  1  0
  4 15  1  0
  5  6  1  0
  5 11  1  0
  5 26  1  0
  6  7  1  0
  6  8  1  0
  6  9  1  0
  9 10  1  0
 11 12  1  0
 11 13  1  0
 11 14  1  0
 15 16  1  0
 15 17  1  0
 15 18  1  0
 19 20  1  0
 20 21  1  0
 20 22  2  0
 22 23  1  0
 22 24  1  0
 24 25  1  0
M  END
$$$$
