F368_36
     RDKit          3D

 29 30  0  0  0  0  0  0  0  0999 V2000
  -19.7223   15.8935   27.6218 O   0  0  0  0  0  0  0  0  0  0  0  0
  -18.8025   15.4848   26.9381 C   0  0  0  0  0  0  0  0  0  0  0  0
  -18.7580   14.1817   26.5230 N   0  0  0  0  0  0  0  0  0  0  0  0
  -17.9369   13.9291   25.9610 H   0  0  0  0  0  0  0  0  0  0  0  0
  -19.6809   13.1749   26.7751 C   0  0  0  0  0  0  0  0  0  0  0  0
  -20.7976   13.2508   27.5284 C   0  0  0  0  0  0  0  0  0  0  0  0
  -21.2257   14.0446   28.0796 H   0  0  0  0  0  0  0  0  0  0  0  0
  -21.3480   12.0131   27.4598 N   0  0  0  0  0  0  0  0  0  0  0  0
  -22.5614   11.5491   28.0966 C   0  0  0  0  0  0  0  0  0  0  0  0
  -22.7411   10.5219   27.7591 H   0  0  0  0  0  0  0  0  0  0  0  0
  -22.3819   11.5203   29.1768 H   0  0  0  0  0  0  0  0  0  0  0  0
  -23.7512   12.4374   27.7809 C   0  0  0  0  0  0  0  0  0  0  0  0
  -24.6487   12.0634   28.2828 H   0  0  0  0  0  0  0  0  0  0  0  0
  -23.5745   13.4648   28.1153 H   0  0  0  0  0  0  0  0  0  0  0  0
  -23.9485   12.4657   26.7042 H   0  0  0  0  0  0  0  0  0  0  0  0
  -20.6126   11.1641   26.6823 N   0  0  0  0  0  0  0  0  0  0  0  0
  -19.5989   11.8810   26.2713 C   0  0  0  0  0  0  0  0  0  0  0  0
  -18.8342   11.5047   25.6424 H   0  0  0  0  0  0  0  0  0  0  0  0
  -17.5944   16.3464   26.4643 C   0  0  0  0  0  0  0  0  0  0  0  0
  -17.3582   16.1863   25.4012 H   0  0  0  0  0  0  0  0  0  0  0  0
  -17.6344   17.8642   26.7937 C   0  0  0  0  0  0  0  0  0  0  0  0
  -18.2090   18.1191   27.6908 H   0  0  0  0  0  0  0  0  0  0  0  0
  -17.9488   18.5171   25.9744 H   0  0  0  0  0  0  0  0  0  0  0  0
  -16.1147   17.7888   27.0316 C   0  0  0  0  0  0  0  0  0  0  0  0
  -15.7316   18.3927   27.8577 H   0  0  0  0  0  0  0  0  0  0  0  0
  -15.5182   17.9886   26.1341 H   0  0  0  0  0  0  0  0  0  0  0  0
  -16.3033   16.2888   27.3273 C   0  0  0  0  0  0  0  0  0  0  0  0
  -16.4760   16.0671   28.3872 H   0  0  0  0  0  0  0  0  0  0  0  0
  -15.5128   15.6336   26.9528 H   0  0  0  0  0  0  0  0  0  0  0  0
  1  2  2  0
  2  3  1  0
  2 19  1  0
  3  4  1  0
  3  5  1  0
  5  6  2  0
  5 17  1  0
  6  7  1  0
  6  8  1  0
  8  9  1  0
  8 16  1  0
  9 10  1  0
  9 11  1  0
  9 12  1  0
 12 13  1  0
 12 14  1  0
 12 15  1  0
 16 17  2  0
 17 18  1  0
 19 20  1  0
 19 21  1  0
 19 27  1  0
 21 22  1  0
 21 23  1  0
 21 24  1  0
 24 25  1  0
 24 26  1  0
 24 27  1  0
 27 28  1  0
 27 29  1  0
M  END
$$$$
