F374_33
     RDKit          3D

 18 18  0  0  0  0  0  0  0  0999 V2000
  -19.4743   15.4836   27.3363 O   0  0  0  0  0  0  0  0  0  0  0  0
  -18.9224   15.4118   26.2396 C   0  0  0  0  0  0  0  0  0  0  0  0
  -18.3243   16.5459   25.7626 N   0  0  0  0  0  0  0  0  0  0  0  0
  -17.8131   16.4569   24.8730 H   0  0  0  0  0  0  0  0  0  0  0  0
  -18.3628   17.8191   26.4506 C   0  0  0  0  0  0  0  0  0  0  0  0
  -18.3419   18.6169   25.6998 H   0  0  0  0  0  0  0  0  0  0  0  0
  -19.3151   17.8844   26.9863 H   0  0  0  0  0  0  0  0  0  0  0  0
  -17.2017   17.9698   27.4138 C   0  0  0  0  0  0  0  0  0  0  0  0
  -17.2507   18.9369   27.9231 H   0  0  0  0  0  0  0  0  0  0  0  0
  -17.2179   17.1804   28.1726 H   0  0  0  0  0  0  0  0  0  0  0  0
  -16.2449   17.9059   26.8853 H   0  0  0  0  0  0  0  0  0  0  0  0
  -18.8230   14.2322   25.4159 C   0  0  0  0  0  0  0  0  0  0  0  0
  -19.1355   12.9794   25.8579 N   0  0  0  0  0  0  0  0  0  0  0  0
  -18.9341   12.1482   24.8665 N   0  0  0  0  0  0  0  0  0  0  0  0
  -18.5030   12.8609   23.8148 N   0  0  0  0  0  0  0  0  0  0  0  0
  -18.2715   12.4339   22.8985 H   0  0  0  0  0  0  0  0  0  0  0  0
  -18.4242   14.1480   24.1227 C   0  0  0  0  0  0  0  0  0  0  0  0
  -18.1069   14.8918   23.4383 H   0  0  0  0  0  0  0  0  0  0  0  0
  1  2  2  0
  2  3  1  0
  2 12  1  0
  3  4  1  0
  3  5  1  0
  5  6  1  0
  5  7  1  0
  5  8  1  0
  8  9  1  0
  8 10  1  0
  8 11  1  0
 12 13  1  0
 12 17  2  0
 13 14  2  0
 14 15  1  0
 15 16  1  0
 15 17  1  0
 17 18  1  0
M  END
$$$$
