F199_98
     RDKit          3D

 25 26  0  0  0  0  0  0  0  0999 V2000
  -21.0166   12.6269   29.0892 O   0  0  0  0  0  0  0  0  0  0  0  0
  -21.8296   12.7945   28.1826 C   0  0  0  0  0  0  0  0  0  0  0  0
  -21.3743   12.9874   26.9011 N   0  0  0  0  0  0  0  0  0  0  0  0
  -22.1253   13.1187   26.2092 H   0  0  0  0  0  0  0  0  0  0  0  0
  -20.0613   13.0229   26.4670 C   0  0  0  0  0  0  0  0  0  0  0  0
  -19.7417   13.0142   25.1569 C   0  0  0  0  0  0  0  0  0  0  0  0
  -20.3365   12.9828   24.2833 H   0  0  0  0  0  0  0  0  0  0  0  0
  -18.3867   13.0576   25.1303 N   0  0  0  0  0  0  0  0  0  0  0  0
  -17.5244   13.0687   23.9769 C   0  0  0  0  0  0  0  0  0  0  0  0
  -18.1296   13.0165   23.0688 H   0  0  0  0  0  0  0  0  0  0  0  0
  -16.8606   12.2024   24.0334 H   0  0  0  0  0  0  0  0  0  0  0  0
  -16.9465   13.9962   23.9872 H   0  0  0  0  0  0  0  0  0  0  0  0
  -17.8458   13.0928   26.3773 N   0  0  0  0  0  0  0  0  0  0  0  0
  -18.8711   13.0721   27.1919 C   0  0  0  0  0  0  0  0  0  0  0  0
  -18.7830   13.0908   28.2473 H   0  0  0  0  0  0  0  0  0  0  0  0
  -23.2685   12.8060   28.3528 C   0  0  0  0  0  0  0  0  0  0  0  0
  -24.0928   12.5719   27.3623 N   0  0  0  0  0  0  0  0  0  0  0  0
  -25.3273   12.6582   27.8493 O   0  0  0  0  0  0  0  0  0  0  0  0
  -25.2981   12.9488   29.1538 C   0  0  0  0  0  0  0  0  0  0  0  0
  -26.5920   13.0793   29.8420 C   0  0  0  0  0  0  0  0  0  0  0  0
  -26.4526   13.3254   30.8990 H   0  0  0  0  0  0  0  0  0  0  0  0
  -27.1541   12.1424   29.7817 H   0  0  0  0  0  0  0  0  0  0  0  0
  -27.1926   13.8710   29.3847 H   0  0  0  0  0  0  0  0  0  0  0  0
  -24.0111   13.0516   29.5093 C   0  0  0  0  0  0  0  0  0  0  0  0
  -23.6302   13.2728   30.4725 H   0  0  0  0  0  0  0  0  0  0  0  0
  1  2  2  0
  2  3  1  0
  2 16  1  0
  3  4  1  0
  3  5  1  0
  5  6  2  0
  5 14  1  0
  6  7  1  0
  6  8  1  0
  8  9  1  0
  8 13  1  0
  9 10  1  0
  9 11  1  0
  9 12  1  0
 13 14  2  0
 14 15  1  0
 16 17  2  0
 16 24  1  0
 17 18  1  0
 18 19  1  0
 19 20  1  0
 19 24  2  0
 20 21  1  0
 20 22  1  0
 20 23  1  0
 24 25  1  0
M  END
$$$$
