F393_91
     RDKit          3D

 24 24  0  0  0  0  0  0  0  0999 V2000
  -20.2219   14.9223   27.6770 O   0  0  0  0  0  0  0  0  0  0  0  0
  -19.2956   14.7034   26.9064 C   0  0  0  0  0  0  0  0  0  0  0  0
  -19.0164   13.4838   26.3714 O   0  0  0  0  0  0  0  0  0  0  0  0
  -19.9446   12.4481   26.7180 C   0  0  0  0  0  0  0  0  0  0  0  0
  -19.8899   12.2481   27.7935 H   0  0  0  0  0  0  0  0  0  0  0  0
  -20.9603   12.7591   26.4502 H   0  0  0  0  0  0  0  0  0  0  0  0
  -19.5694   11.1992   25.9446 C   0  0  0  0  0  0  0  0  0  0  0  0
  -18.5461   10.8899   26.1836 H   0  0  0  0  0  0  0  0  0  0  0  0
  -19.6010   11.3907   24.8666 H   0  0  0  0  0  0  0  0  0  0  0  0
  -20.2509   10.3760   26.1775 H   0  0  0  0  0  0  0  0  0  0  0  0
  -18.4311   15.6850   26.4959 N   0  0  0  0  0  0  0  0  0  0  0  0
  -18.5837   17.0660   26.9523 C   0  0  0  0  0  0  0  0  0  0  0  0
  -18.9179   17.6439   26.0828 H   0  0  0  0  0  0  0  0  0  0  0  0
  -19.3497   17.1482   27.7301 H   0  0  0  0  0  0  0  0  0  0  0  0
  -17.2496   17.6140   27.4591 C   0  0  0  0  0  0  0  0  0  0  0  0
  -16.9322   17.1002   28.3747 H   0  0  0  0  0  0  0  0  0  0  0  0
  -17.3441   18.6806   27.6872 H   0  0  0  0  0  0  0  0  0  0  0  0
  -16.2261   17.4684   26.4637 O   0  0  0  0  0  0  0  0  0  0  0  0
  -16.0320   16.0853   26.1312 C   0  0  0  0  0  0  0  0  0  0  0  0
  -15.2330   16.0302   25.3852 H   0  0  0  0  0  0  0  0  0  0  0  0
  -15.6946   15.5483   27.0263 H   0  0  0  0  0  0  0  0  0  0  0  0
  -17.3159   15.4717   25.5707 C   0  0  0  0  0  0  0  0  0  0  0  0
  -17.1620   14.4110   25.3539 H   0  0  0  0  0  0  0  0  0  0  0  0
  -17.5913   15.9726   24.6357 H   0  0  0  0  0  0  0  0  0  0  0  0
  1  2  2  0
  2  3  1  0
  2 11  1  0
  3  4  1  0
  4  5  1  0
  4  6  1  0
  4  7  1  0
  7  8  1  0
  7  9  1  0
  7 10  1  0
 11 12  1  0
 11 22  1  0
 12 13  1  0
 12 14  1  0
 12 15  1  0
 15 16  1  0
 15 17  1  0
 15 18  1  0
 18 19  1  0
 19 20  1  0
 19 21  1  0
 19 22  1  0
 22 23  1  0
 22 24  1  0
M  END
$$$$
