F309_12
     RDKit          3D

 14 14  0  0  0  0  0  0  0  0999 V2000
  -25.6836   14.0801   26.8018 O   0  0  0  0  0  0  0  0  0  0  0  0
  -24.9307   13.0678   26.7596 C   0  0  0  0  0  0  0  0  0  0  0  0
  -24.6216   12.5630   25.6398 O   0  0  0  0  0  0  0  0  0  0  0  0
  -24.4195   12.4869   27.9946 C   0  0  0  0  0  0  0  0  0  0  0  0
  -24.8274   12.7684   29.2879 C   0  0  0  0  0  0  0  0  0  0  0  0
  -25.9013   13.7510   29.6539 C   0  0  0  0  0  0  0  0  0  0  0  0
  -26.0396   13.8003   30.7388 H   0  0  0  0  0  0  0  0  0  0  0  0
  -26.8598   13.4579   29.2139 H   0  0  0  0  0  0  0  0  0  0  0  0
  -25.6368   14.7572   29.3118 H   0  0  0  0  0  0  0  0  0  0  0  0
  -24.1298   12.0313   30.2584 C   0  0  0  0  0  0  0  0  0  0  0  0
  -24.3088   12.1143   31.2989 H   0  0  0  0  0  0  0  0  0  0  0  0
  -23.1947   11.1930   29.7250 C   0  0  0  0  0  0  0  0  0  0  0  0
  -22.5444   10.5380   30.2445 H   0  0  0  0  0  0  0  0  0  0  0  0
  -23.1521   11.2929   28.0073 S   0  0  0  0  0  0  0  0  0  0  0  0
  1  2  1  0
  2  3  2  0
  2  4  1  0
  4  5  2  0
  4 14  1  0
  5  6  1  0
  5 10  1  0
  6  7  1  0
  6  8  1  0
  6  9  1  0
 10 11  1  0
 10 12  2  0
 12 13  1  0
 12 14  1  0
M  END
$$$$
