F650_46
     RDKit          3D

 23 24  0  0  0  0  0  0  0  0999 V2000
  -19.2213   18.7038   25.8109 O   0  0  0  0  0  0  0  0  0  0  0  0
  -18.8588   18.5835   26.9770 C   0  0  0  0  0  0  0  0  0  0  0  0
  -19.6827   19.1251   27.9501 N   0  0  0  0  0  0  0  0  0  0  0  0
  -19.4390   19.2133   29.3857 C   0  0  0  0  0  0  0  0  0  0  0  0
  -19.2161   18.2368   29.8174 H   0  0  0  0  0  0  0  0  0  0  0  0
  -18.5870   19.8828   29.5433 H   0  0  0  0  0  0  0  0  0  0  0  0
  -20.7255   19.7863   29.9687 C   0  0  0  0  0  0  0  0  0  0  0  0
  -21.4146   18.9715   30.2233 H   0  0  0  0  0  0  0  0  0  0  0  0
  -20.5514   20.3798   30.8692 H   0  0  0  0  0  0  0  0  0  0  0  0
  -21.2983   20.5994   28.8181 C   0  0  0  0  0  0  0  0  0  0  0  0
  -20.7882   21.5684   28.7594 H   0  0  0  0  0  0  0  0  0  0  0  0
  -22.3724   20.7799   28.9137 H   0  0  0  0  0  0  0  0  0  0  0  0
  -20.9508   19.7529   27.6048 C   0  0  0  0  0  0  0  0  0  0  0  0
  -20.8717   20.3455   26.6891 H   0  0  0  0  0  0  0  0  0  0  0  0
  -21.6857   18.9545   27.4487 H   0  0  0  0  0  0  0  0  0  0  0  0
  -17.5979   17.9637   27.3369 C   0  0  0  0  0  0  0  0  0  0  0  0
  -16.4613   18.6628   27.6168 C   0  0  0  0  0  0  0  0  0  0  0  0
  -16.2726   19.7047   27.6493 H   0  0  0  0  0  0  0  0  0  0  0  0
  -15.5133   17.7453   27.8656 N   0  0  0  0  0  0  0  0  0  0  0  0
  -14.5275   17.9598   28.1110 H   0  0  0  0  0  0  0  0  0  0  0  0
  -15.9874   16.4736   27.7515 N   0  0  0  0  0  0  0  0  0  0  0  0
  -17.2400   16.6158   27.4239 C   0  0  0  0  0  0  0  0  0  0  0  0
  -17.8849   15.7951   27.2381 H   0  0  0  0  0  0  0  0  0  0  0  0
  1  2  2  0
  2  3  1  0
  2 16  1  0
  3  4  1  0
  3 13  1  0
  4  5  1  0
  4  6  1  0
  4  7  1  0
  7  8  1  0
  7  9  1  0
  7 10  1  0
 10 11  1  0
 10 12  1  0
 10 13  1  0
 13 14  1  0
 13 15  1  0
 16 17  2  0
 16 22  1  0
 17 18  1  0
 17 19  1  0
 19 20  1  0
 19 21  1  0
 21 22  2  0
 22 23  1  0
M  END
$$$$
