F217_7
     RDKit          3D

 28 29  0  0  0  0  0  0  0  0999 V2000
  -23.4039   10.6236   27.3425 O   0  0  0  0  0  0  0  0  0  0  0  0
  -23.8975   11.7392   27.3436 C   0  0  0  0  0  0  0  0  0  0  0  0
  -24.8878   12.0110   26.5173 N   0  0  0  0  0  0  0  0  0  0  0  0
  -25.1891   11.2631   25.9147 H   0  0  0  0  0  0  0  0  0  0  0  0
  -25.3119   12.9216   26.4916 H   0  0  0  0  0  0  0  0  0  0  0  0
  -23.4555   12.8643   28.2412 C   0  0  0  0  0  0  0  0  0  0  0  0
  -22.5209   12.5729   28.7333 H   0  0  0  0  0  0  0  0  0  0  0  0
  -23.2394   13.7388   27.6156 H   0  0  0  0  0  0  0  0  0  0  0  0
  -24.5256   13.1909   29.2742 C   0  0  0  0  0  0  0  0  0  0  0  0
  -24.7856   12.3077   29.8678 H   0  0  0  0  0  0  0  0  0  0  0  0
  -25.4541   13.5255   28.7951 H   0  0  0  0  0  0  0  0  0  0  0  0
  -24.0951   14.2412   30.1777 N   0  0  0  0  0  0  0  0  0  0  0  0
  -23.5227   14.0805   31.4183 C   0  0  0  0  0  0  0  0  0  0  0  0
  -23.2642   12.7517   32.0335 C   0  0  0  0  0  0  0  0  0  0  0  0
  -22.7175   12.8663   32.9742 H   0  0  0  0  0  0  0  0  0  0  0  0
  -22.6628   12.1238   31.3704 H   0  0  0  0  0  0  0  0  0  0  0  0
  -24.2059   12.2392   32.2524 H   0  0  0  0  0  0  0  0  0  0  0  0
  -23.2430   15.2155   31.9674 N   0  0  0  0  0  0  0  0  0  0  0  0
  -23.6423   16.1761   31.0648 C   0  0  0  0  0  0  0  0  0  0  0  0
  -24.1791   15.5812   29.9411 C   0  0  0  0  0  0  0  0  0  0  0  0
  -24.6705   16.3162   28.8523 C   0  0  0  0  0  0  0  0  0  0  0  0
  -25.0819   15.8347   28.0029 H   0  0  0  0  0  0  0  0  0  0  0  0
  -24.6013   17.6989   28.9269 C   0  0  0  0  0  0  0  0  0  0  0  0
  -24.9611   18.2914   28.1267 H   0  0  0  0  0  0  0  0  0  0  0  0
  -24.0526   18.3272   30.0680 C   0  0  0  0  0  0  0  0  0  0  0  0
  -24.0075   19.3865   30.1091 H   0  0  0  0  0  0  0  0  0  0  0  0
  -23.5756   17.5742   31.1323 C   0  0  0  0  0  0  0  0  0  0  0  0
  -23.1650   18.0345   31.9910 H   0  0  0  0  0  0  0  0  0  0  0  0
  1  2  2  0
  2  3  1  0
  2  6  1  0
  3  4  1  0
  3  5  1  0
  6  7  1  0
  6  8  1  0
  6  9  1  0
  9 10  1  0
  9 11  1  0
  9 12  1  0
 12 13  1  0
 12 20  1  0
 13 14  1  0
 13 18  2  0
 14 15  1  0
 14 16  1  0
 14 17  1  0
 18 19  1  0
 19 20  1  0
 19 27  2  0
 20 21  2  0
 21 22  1  0
 21 23  1  0
 23 24  1  0
 23 25  2  0
 25 26  1  0
 25 27  1  0
 27 28  1  0
M  END
$$$$
