F600_44
     RDKit          3D

 16 16  0  0  0  0  0  0  0  0999 V2000
  -22.0856   12.6460   26.9226 O   0  0  0  0  0  0  0  0  0  0  0  0
  -20.7956   12.8902   27.4833 C   0  0  0  0  0  0  0  0  0  0  0  0
  -20.8743   13.6507   28.2698 H   0  0  0  0  0  0  0  0  0  0  0  0
  -20.3949   11.9690   27.9214 H   0  0  0  0  0  0  0  0  0  0  0  0
  -19.9125   13.3833   26.3881 C   0  0  0  0  0  0  0  0  0  0  0  0
  -19.0224   12.2912   25.4137 S   0  0  0  0  0  0  0  0  0  0  0  0
  -18.4161   13.6631   24.6114 C   0  0  0  0  0  0  0  0  0  0  0  0
  -17.5483   13.5256   23.5948 N   0  0  0  0  0  0  0  0  0  0  0  0
  -17.2313   12.6196   23.2731 H   0  0  0  0  0  0  0  0  0  0  0  0
  -17.1871   14.3428   23.1176 H   0  0  0  0  0  0  0  0  0  0  0  0
  -18.8410   14.8074   25.0476 N   0  0  0  0  0  0  0  0  0  0  0  0
  -19.7224   14.6344   26.0945 N   0  0  0  0  0  0  0  0  0  0  0  0
  -22.9650   12.0577   27.8705 C   0  0  0  0  0  0  0  0  0  0  0  0
  -23.9324   11.8940   27.3875 H   0  0  0  0  0  0  0  0  0  0  0  0
  -23.1101   12.7254   28.7249 H   0  0  0  0  0  0  0  0  0  0  0  0
  -22.5753   11.0923   28.2072 H   0  0  0  0  0  0  0  0  0  0  0  0
  1  2  1  0
  1 13  1  0
  2  3  1  0
  2  4  1  0
  2  5  1  0
  5  6  1  0
  5 12  2  0
  6  7  1  0
  7  8  1  0
  7 11  2  0
  8  9  1  0
  8 10  1  0
 11 12  1  0
 13 14  1  0
 13 15  1  0
 13 16  1  0
M  END
$$$$
