F535_98
     RDKit          3D

 23 24  0  0  0  0  0  0  0  0999 V2000
  -18.9730   13.6688   24.8972 N   0  0  0  0  0  0  0  0  0  0  0  0
  -19.5406   13.1576   24.2040 H   0  0  0  0  0  0  0  0  0  0  0  0
  -19.6248   14.3606   25.2935 H   0  0  0  0  0  0  0  0  0  0  0  0
  -18.5983   12.7083   25.9857 C   0  0  0  0  0  0  0  0  0  0  0  0
  -17.7750   12.0994   25.6009 H   0  0  0  0  0  0  0  0  0  0  0  0
  -18.2534   13.3102   26.8334 H   0  0  0  0  0  0  0  0  0  0  0  0
  -19.7529   11.8646   26.3694 C   0  0  0  0  0  0  0  0  0  0  0  0
  -20.7811   12.2520   27.1356 N   0  0  0  0  0  0  0  0  0  0  0  0
  -21.6057   11.1849   27.2420 C   0  0  0  0  0  0  0  0  0  0  0  0
  -21.0940   10.1876   26.5575 N   0  0  0  0  0  0  0  0  0  0  0  0
  -19.9318   10.6258   26.0101 N   0  0  0  0  0  0  0  0  0  0  0  0
  -22.7979   11.3111   28.0161 C   0  0  0  0  0  0  0  0  0  0  0  0
  -23.4437   10.4752   28.1019 H   0  0  0  0  0  0  0  0  0  0  0  0
  -23.0866   12.4957   28.6306 C   0  0  0  0  0  0  0  0  0  0  0  0
  -23.9688   12.6049   29.2101 H   0  0  0  0  0  0  0  0  0  0  0  0
  -22.1923   13.6032   28.4928 C   0  0  0  0  0  0  0  0  0  0  0  0
  -22.4333   14.5178   28.9759 H   0  0  0  0  0  0  0  0  0  0  0  0
  -21.0481   13.4867   27.7530 C   0  0  0  0  0  0  0  0  0  0  0  0
  -20.3348   14.2534   27.5996 H   0  0  0  0  0  0  0  0  0  0  0  0
  -17.8373   14.3489   24.2317 C   0  0  0  0  0  0  0  0  0  0  0  0
  -17.1993   13.5886   23.7766 H   0  0  0  0  0  0  0  0  0  0  0  0
  -17.2942   14.9258   24.9838 H   0  0  0  0  0  0  0  0  0  0  0  0
  -18.2523   15.0104   23.4676 H   0  0  0  0  0  0  0  0  0  0  0  0
  1  2  1  0
  1  3  1  0
  1  4  1  0
  1 20  1  0
  4  5  1  0
  4  6  1  0
  4  7  1  0
  7  8  1  0
  7 11  2  0
  8  9  1  0
  8 18  1  0
  9 10  2  0
  9 12  1  0
 10 11  1  0
 12 13  1  0
 12 14  2  0
 14 15  1  0
 14 16  1  0
 16 17  1  0
 16 18  2  0
 18 19  1  0
 20 21  1  0
 20 22  1  0
 20 23  1  0
M  END
$$$$
