F558_94
     RDKit          3D

 32 33  0  0  0  0  0  0  0  0999 V2000
  -19.5189   11.7010   24.7693 O   0  0  0  0  0  0  0  0  0  0  0  0
  -19.2960   12.8209   25.2051 C   0  0  0  0  0  0  0  0  0  0  0  0
  -18.4383   13.7219   24.6578 O   0  0  0  0  0  0  0  0  0  0  0  0
  -17.6314   13.2017   23.5988 C   0  0  0  0  0  0  0  0  0  0  0  0
  -18.2606   12.8419   22.7794 H   0  0  0  0  0  0  0  0  0  0  0  0
  -16.9838   12.4012   23.9715 H   0  0  0  0  0  0  0  0  0  0  0  0
  -17.0012   14.0125   23.2243 H   0  0  0  0  0  0  0  0  0  0  0  0
  -19.8450   13.3522   26.3316 N   0  0  0  0  0  0  0  0  0  0  0  0
  -19.4753   14.2772   26.5697 H   0  0  0  0  0  0  0  0  0  0  0  0
  -20.8182   12.8061   27.1963 C   0  0  0  0  0  0  0  0  0  0  0  0
  -21.2350   11.4743   27.1348 C   0  0  0  0  0  0  0  0  0  0  0  0
  -20.8302   10.8142   26.4145 H   0  0  0  0  0  0  0  0  0  0  0  0
  -22.1998   11.0183   28.0267 C   0  0  0  0  0  0  0  0  0  0  0  0
  -22.5166   10.0076   27.9783 H   0  0  0  0  0  0  0  0  0  0  0  0
  -22.7550   11.8786   28.9761 C   0  0  0  0  0  0  0  0  0  0  0  0
  -23.8191   11.3810   29.9285 C   0  0  0  0  0  0  0  0  0  0  0  0
  -23.3509   11.1014   30.8817 H   0  0  0  0  0  0  0  0  0  0  0  0
  -24.2517   10.4456   29.5494 H   0  0  0  0  0  0  0  0  0  0  0  0
  -24.9205   12.3814   30.1720 C   0  0  0  0  0  0  0  0  0  0  0  0
  -25.8020   12.7460   29.1610 C   0  0  0  0  0  0  0  0  0  0  0  0
  -25.7277   12.3124   28.1984 H   0  0  0  0  0  0  0  0  0  0  0  0
  -26.7922   13.6899   29.4138 C   0  0  0  0  0  0  0  0  0  0  0  0
  -27.4684   13.9746   28.6471 H   0  0  0  0  0  0  0  0  0  0  0  0
  -26.9270   14.2647   30.6069 N   0  0  0  0  0  0  0  0  0  0  0  0
  -26.0923   13.9332   31.5902 C   0  0  0  0  0  0  0  0  0  0  0  0
  -26.2181   14.4080   32.5309 H   0  0  0  0  0  0  0  0  0  0  0  0
  -25.0791   12.9976   31.4073 C   0  0  0  0  0  0  0  0  0  0  0  0
  -24.4292   12.7630   32.2108 H   0  0  0  0  0  0  0  0  0  0  0  0
  -22.3388   13.2116   29.0191 C   0  0  0  0  0  0  0  0  0  0  0  0
  -22.7552   13.8763   29.7316 H   0  0  0  0  0  0  0  0  0  0  0  0
  -21.3746   13.6780   28.1319 C   0  0  0  0  0  0  0  0  0  0  0  0
  -21.0596   14.6885   28.1720 H   0  0  0  0  0  0  0  0  0  0  0  0
  1  2  2  0
  2  3  1  0
  2  8  1  0
  3  4  1  0
  4  5  1  0
  4  6  1  0
  4  7  1  0
  8  9  1  0
  8 10  1  0
 10 11  1  0
 10 31  2  0
 11 12  1  0
 11 13  2  0
 13 14  1  0
 13 15  1  0
 15 16  1  0
 15 29  2  0
 16 17  1  0
 16 18  1  0
 16 19  1  0
 19 20  1  0
 19 27  2  0
 20 21  1  0
 20 22  2  0
 22 23  1  0
 22 24  1  0
 24 25  2  0
 25 26  1  0
 25 27  1  0
 27 28  1  0
 29 30  1  0
 29 31  1  0
 31 32  1  0
M  END
$$$$
