F687_70
     RDKit          3D

 24 25  0  0  0  0  0  0  0  0999 V2000
  -19.5086   16.0670   26.3383 F   0  0  0  0  0  0  0  0  0  0  0  0
  -18.4801   16.8678   26.6573 C   0  0  0  0  0  0  0  0  0  0  0  0
  -17.1690   16.5538   26.2464 C   0  0  0  0  0  0  0  0  0  0  0  0
  -16.8456   15.4325   25.5038 N   0  0  0  0  0  0  0  0  0  0  0  0
  -15.8762   15.1642   25.3631 H   0  0  0  0  0  0  0  0  0  0  0  0
  -17.7985   14.5406   24.8588 C   0  0  0  0  0  0  0  0  0  0  0  0
  -18.5492   15.1380   24.3260 H   0  0  0  0  0  0  0  0  0  0  0  0
  -17.2726   13.9210   24.1228 H   0  0  0  0  0  0  0  0  0  0  0  0
  -18.5340   13.6145   25.7883 C   0  0  0  0  0  0  0  0  0  0  0  0
  -18.3176   13.6301   27.0815 N   0  0  0  0  0  0  0  0  0  0  0  0
  -19.1438   12.6764   27.5880 N   0  0  0  0  0  0  0  0  0  0  0  0
  -19.1947   12.4552   28.5995 H   0  0  0  0  0  0  0  0  0  0  0  0
  -19.8708   12.0740   26.6243 C   0  0  0  0  0  0  0  0  0  0  0  0
  -20.5722   11.3072   26.8309 H   0  0  0  0  0  0  0  0  0  0  0  0
  -19.4968   12.6623   25.4676 C   0  0  0  0  0  0  0  0  0  0  0  0
  -19.8694   12.4465   24.4982 H   0  0  0  0  0  0  0  0  0  0  0  0
  -16.1323   17.4151   26.6137 C   0  0  0  0  0  0  0  0  0  0  0  0
  -15.1369   17.1928   26.3294 H   0  0  0  0  0  0  0  0  0  0  0  0
  -16.4075   18.5639   27.3557 C   0  0  0  0  0  0  0  0  0  0  0  0
  -15.6164   19.2145   27.6276 H   0  0  0  0  0  0  0  0  0  0  0  0
  -17.7147   18.8663   27.7429 C   0  0  0  0  0  0  0  0  0  0  0  0
  -17.9115   19.7429   28.3054 H   0  0  0  0  0  0  0  0  0  0  0  0
  -18.7578   18.0108   27.3923 C   0  0  0  0  0  0  0  0  0  0  0  0
  -19.7525   18.2247   27.6861 H   0  0  0  0  0  0  0  0  0  0  0  0
  1  2  1  0
  2  3  1  0
  2 23  2  0
  3  4  1  0
  3 17  2  0
  4  5  1  0
  4  6  1  0
  6  7  1  0
  6  8  1  0
  6  9  1  0
  9 10  2  0
  9 15  1  0
 10 11  1  0
 11 12  1  0
 11 13  1  0
 13 14  1  0
 13 15  2  0
 15 16  1  0
 17 18  1  0
 17 19  1  0
 19 20  1  0
 19 21  2  0
 21 22  1  0
 21 23  1  0
 23 24  1  0
M  END
$$$$
