F603_65
     RDKit          3D

 24 25  0  0  0  0  0  0  0  0999 V2000
  -20.2547   13.2388   27.1027 S   0  0  0  0  0  0  0  0  0  0  0  0
  -20.0741   14.5536   27.6853 O   0  0  0  0  0  0  0  0  0  0  0  0
  -20.5145   13.0847   25.6806 O   0  0  0  0  0  0  0  0  0  0  0  0
  -21.5518   12.3867   27.9856 C   0  0  0  0  0  0  0  0  0  0  0  0
  -21.9284   11.5884   27.3400 H   0  0  0  0  0  0  0  0  0  0  0  0
  -21.1127   11.9556   28.8895 H   0  0  0  0  0  0  0  0  0  0  0  0
  -22.6442   13.3409   28.3192 C   0  0  0  0  0  0  0  0  0  0  0  0
  -23.8477   13.3518   27.6678 N   0  0  0  0  0  0  0  0  0  0  0  0
  -24.1209   12.7521   26.8763 H   0  0  0  0  0  0  0  0  0  0  0  0
  -24.6294   14.2985   28.2429 C   0  0  0  0  0  0  0  0  0  0  0  0
  -23.8502   14.8355   29.2466 C   0  0  0  0  0  0  0  0  0  0  0  0
  -22.6183   14.2165   29.2685 N   0  0  0  0  0  0  0  0  0  0  0  0
  -24.3789   15.8584   30.0450 C   0  0  0  0  0  0  0  0  0  0  0  0
  -23.7861   16.2763   30.8159 H   0  0  0  0  0  0  0  0  0  0  0  0
  -25.6721   16.3057   29.8054 C   0  0  0  0  0  0  0  0  0  0  0  0
  -26.0816   17.0792   30.4023 H   0  0  0  0  0  0  0  0  0  0  0  0
  -26.4512   15.7381   28.7704 C   0  0  0  0  0  0  0  0  0  0  0  0
  -27.4369   16.0941   28.6050 H   0  0  0  0  0  0  0  0  0  0  0  0
  -25.9370   14.7261   27.9757 C   0  0  0  0  0  0  0  0  0  0  0  0
  -26.5092   14.2927   27.1963 H   0  0  0  0  0  0  0  0  0  0  0  0
  -18.8155   12.2766   27.4935 C   0  0  0  0  0  0  0  0  0  0  0  0
  -18.6621   12.2958   28.5739 H   0  0  0  0  0  0  0  0  0  0  0  0
  -17.9584   12.7232   26.9854 H   0  0  0  0  0  0  0  0  0  0  0  0
  -18.9671   11.2540   27.1415 H   0  0  0  0  0  0  0  0  0  0  0  0
  1  2  2  0
  1  3  2  0
  1  4  1  0
  1 21  1  0
  4  5  1  0
  4  6  1  0
  4  7  1  0
  7  8  1  0
  7 12  2  0
  8  9  1  0
  8 10  1  0
 10 11  1  0
 10 19  2  0
 11 12  1  0
 11 13  2  0
 13 14  1  0
 13 15  1  0
 15 16  1  0
 15 17  2  0
 17 18  1  0
 17 19  1  0
 19 20  1  0
 21 22  1  0
 21 23  1  0
 21 24  1  0
M  END
$$$$
