F421_18
     RDKit          3D

 19 19  0  0  0  0  0  0  0  0999 V2000
  -19.5291   16.6093   27.3792 O   0  0  0  0  0  0  0  0  0  0  0  0
  -18.5486   16.0291   26.9187 C   0  0  0  0  0  0  0  0  0  0  0  0
  -17.3938   16.7908   26.7500 N   0  0  0  0  0  0  0  0  0  0  0  0
  -17.4683   18.2443   26.8079 C   0  0  0  0  0  0  0  0  0  0  0  0
  -16.9458   18.6595   25.9400 H   0  0  0  0  0  0  0  0  0  0  0  0
  -16.9777   18.5822   27.7253 H   0  0  0  0  0  0  0  0  0  0  0  0
  -18.4981   18.6094   26.7992 H   0  0  0  0  0  0  0  0  0  0  0  0
  -16.0622   16.2376   26.5417 C   0  0  0  0  0  0  0  0  0  0  0  0
  -15.3402   16.8075   27.1356 H   0  0  0  0  0  0  0  0  0  0  0  0
  -15.8082   16.3277   25.4816 H   0  0  0  0  0  0  0  0  0  0  0  0
  -16.0029   15.1933   26.8549 H   0  0  0  0  0  0  0  0  0  0  0  0
  -18.5752   14.6204   26.5696 C   0  0  0  0  0  0  0  0  0  0  0  0
  -17.9615   14.0896   25.4745 C   0  0  0  0  0  0  0  0  0  0  0  0
  -17.4045   14.5440   24.6969 H   0  0  0  0  0  0  0  0  0  0  0  0
  -18.1817   12.7653   25.5303 N   0  0  0  0  0  0  0  0  0  0  0  0
  -17.8413   12.0761   24.8331 H   0  0  0  0  0  0  0  0  0  0  0  0
  -18.9092   12.4131   26.6251 N   0  0  0  0  0  0  0  0  0  0  0  0
  -19.1330   13.5348   27.2486 C   0  0  0  0  0  0  0  0  0  0  0  0
  -19.6698   13.5891   28.1630 H   0  0  0  0  0  0  0  0  0  0  0  0
  1  2  2  0
  2  3  1  0
  2 12  1  0
  3  4  1  0
  3  8  1  0
  4  5  1  0
  4  6  1  0
  4  7  1  0
  8  9  1  0
  8 10  1  0
  8 11  1  0
 12 13  2  0
 12 18  1  0
 13 14  1  0
 13 15  1  0
 15 16  1  0
 15 17  1  0
 17 18  2  0
 18 19  1  0
M  END
$$$$
