F205_3
     RDKit          3D

 20 20  0  0  0  0  0  0  0  0999 V2000
  -25.5407   14.0881   26.7227 O   0  0  0  0  0  0  0  0  0  0  0  0
  -24.9163   13.8115   27.7657 C   0  0  0  0  0  0  0  0  0  0  0  0
  -24.7836   14.7980   28.7618 N   0  0  0  0  0  0  0  0  0  0  0  0
  -25.3797   16.1133   28.5487 C   0  0  0  0  0  0  0  0  0  0  0  0
  -26.0984   16.3190   29.3476 H   0  0  0  0  0  0  0  0  0  0  0  0
  -25.9103   16.1798   27.5947 H   0  0  0  0  0  0  0  0  0  0  0  0
  -24.5895   16.8710   28.5486 H   0  0  0  0  0  0  0  0  0  0  0  0
  -24.0733   14.5310   29.9546 C   0  0  0  0  0  0  0  0  0  0  0  0
  -23.9243   15.6111   30.9896 C   0  0  0  0  0  0  0  0  0  0  0  0
  -23.3919   16.4738   30.5760 H   0  0  0  0  0  0  0  0  0  0  0  0
  -23.3531   15.2658   31.8582 H   0  0  0  0  0  0  0  0  0  0  0  0
  -24.9020   15.9373   31.3565 H   0  0  0  0  0  0  0  0  0  0  0  0
  -23.5414   13.2880   30.1587 C   0  0  0  0  0  0  0  0  0  0  0  0
  -23.0133   13.0796   31.0532 H   0  0  0  0  0  0  0  0  0  0  0  0
  -23.6679   12.2541   29.1921 C   0  0  0  0  0  0  0  0  0  0  0  0
  -23.2392   11.3028   29.3755 H   0  0  0  0  0  0  0  0  0  0  0  0
  -24.3283   12.5038   28.0259 C   0  0  0  0  0  0  0  0  0  0  0  0
  -24.4814   11.5590   27.0416 N   0  0  0  0  0  0  0  0  0  0  0  0
  -24.1051   10.6274   27.1423 H   0  0  0  0  0  0  0  0  0  0  0  0
  -24.9907   11.8331   26.2046 H   0  0  0  0  0  0  0  0  0  0  0  0
  1  2  2  0
  2  3  1  0
  2 17  1  0
  3  4  1  0
  3  8  1  0
  4  5  1  0
  4  6  1  0
  4  7  1  0
  8  9  1  0
  8 13  2  0
  9 10  1  0
  9 11  1  0
  9 12  1  0
 13 14  1  0
 13 15  1  0
 15 16  1  0
 15 17  2  0
 17 18  1  0
 18 19  1  0
 18 20  1  0
M  END
$$$$
