F584_14
     RDKit          3D

 27 28  0  0  0  0  0  0  0  0999 V2000
  -22.3847   10.4714   31.7358 O   0  0  0  0  0  0  0  0  0  0  0  0
  -22.7326    9.1497   32.1255 C   0  0  0  0  0  0  0  0  0  0  0  0
  -21.8194    8.5462   32.1123 H   0  0  0  0  0  0  0  0  0  0  0  0
  -23.4367    8.7009   31.4162 H   0  0  0  0  0  0  0  0  0  0  0  0
  -23.1287    9.1292   33.1461 H   0  0  0  0  0  0  0  0  0  0  0  0
  -23.3843   11.4183   31.6581 C   0  0  0  0  0  0  0  0  0  0  0  0
  -23.6051   11.9726   30.3892 C   0  0  0  0  0  0  0  0  0  0  0  0
  -24.5947   12.9601   30.2716 C   0  0  0  0  0  0  0  0  0  0  0  0
  -24.9464   13.6773   29.1032 N   0  0  0  0  0  0  0  0  0  0  0  0
  -25.7681   14.2870   29.1930 H   0  0  0  0  0  0  0  0  0  0  0  0
  -24.4221   13.7578   27.8518 C   0  0  0  0  0  0  0  0  0  0  0  0
  -25.0170   14.5328   27.1396 O   0  0  0  0  0  0  0  0  0  0  0  0
  -23.1895   13.0353   27.4325 C   0  0  0  0  0  0  0  0  0  0  0  0
  -23.1353   13.0948   26.3386 H   0  0  0  0  0  0  0  0  0  0  0  0
  -22.3117   13.5538   27.8339 H   0  0  0  0  0  0  0  0  0  0  0  0
  -23.2499   11.5861   27.8404 C   0  0  0  0  0  0  0  0  0  0  0  0
  -24.2592   11.1719   27.7222 H   0  0  0  0  0  0  0  0  0  0  0  0
  -22.5890   11.0107   27.1814 H   0  0  0  0  0  0  0  0  0  0  0  0
  -22.7592   11.4134   29.2650 C   0  0  0  0  0  0  0  0  0  0  0  0
  -21.7473   11.8285   29.3607 H   0  0  0  0  0  0  0  0  0  0  0  0
  -22.6710   10.3274   29.4003 H   0  0  0  0  0  0  0  0  0  0  0  0
  -25.3339   13.3745   31.3821 C   0  0  0  0  0  0  0  0  0  0  0  0
  -26.0777   14.1216   31.2756 H   0  0  0  0  0  0  0  0  0  0  0  0
  -25.1001   12.8077   32.6278 C   0  0  0  0  0  0  0  0  0  0  0  0
  -25.6640   13.1216   33.4682 H   0  0  0  0  0  0  0  0  0  0  0  0
  -24.1257   11.8264   32.7711 C   0  0  0  0  0  0  0  0  0  0  0  0
  -23.9538   11.3991   33.7231 H   0  0  0  0  0  0  0  0  0  0  0  0
  1  2  1  0
  1  6  1  0
  2  3  1  0
  2  4  1  0
  2  5  1  0
  6  7  1  0
  6 26  2  0
  7  8  2  0
  7 19  1  0
  8  9  1  0
  8 22  1  0
  9 10  1  0
  9 11  1  0
 11 12  2  0
 11 13  1  0
 13 14  1  0
 13 15  1  0
 13 16  1  0
 16 17  1  0
 16 18  1  0
 16 19  1  0
 19 20  1  0
 19 21  1  0
 22 23  1  0
 22 24  2  0
 24 25  1  0
 24 26  1  0
 26 27  1  0
M  END
$$$$
