F229_27
     RDKit          3D

 27 28  0  0  0  0  0  0  0  0999 V2000
  -19.3575   17.6454   27.9448 F   0  0  0  0  0  0  0  0  0  0  0  0
  -18.3886   18.4270   27.4417 C   0  0  0  0  0  0  0  0  0  0  0  0
  -17.5917   17.9892   26.3648 C   0  0  0  0  0  0  0  0  0  0  0  0
  -17.7399   16.7533   25.7483 N   0  0  0  0  0  0  0  0  0  0  0  0
  -17.1860   16.5506   24.9245 H   0  0  0  0  0  0  0  0  0  0  0  0
  -18.6375   15.7075   26.2070 C   0  0  0  0  0  0  0  0  0  0  0  0
  -18.4279   15.4854   27.2606 H   0  0  0  0  0  0  0  0  0  0  0  0
  -19.6741   16.0607   26.1506 H   0  0  0  0  0  0  0  0  0  0  0  0
  -18.5379   14.4317   25.4277 C   0  0  0  0  0  0  0  0  0  0  0  0
  -18.7292   13.1387   25.9104 C   0  0  0  0  0  0  0  0  0  0  0  0
  -19.0647   12.7072   27.2886 C   0  0  0  0  0  0  0  0  0  0  0  0
  -19.9507   13.2381   27.6527 H   0  0  0  0  0  0  0  0  0  0  0  0
  -18.2324   12.9208   27.9675 H   0  0  0  0  0  0  0  0  0  0  0  0
  -19.2744   11.6336   27.3379 H   0  0  0  0  0  0  0  0  0  0  0  0
  -18.5760   12.2593   24.9608 N   0  0  0  0  0  0  0  0  0  0  0  0
  -18.2876   12.9843   23.8524 N   0  0  0  0  0  0  0  0  0  0  0  0
  -18.1128   12.5496   22.9270 H   0  0  0  0  0  0  0  0  0  0  0  0
  -18.2615   14.3080   24.1087 C   0  0  0  0  0  0  0  0  0  0  0  0
  -18.0570   15.0279   23.3604 H   0  0  0  0  0  0  0  0  0  0  0  0
  -16.6046   18.8462   25.8748 C   0  0  0  0  0  0  0  0  0  0  0  0
  -16.0044   18.5442   25.0571 H   0  0  0  0  0  0  0  0  0  0  0  0
  -16.4113   20.0963   26.4604 C   0  0  0  0  0  0  0  0  0  0  0  0
  -15.6576   20.7420   26.0861 H   0  0  0  0  0  0  0  0  0  0  0  0
  -17.2014   20.5109   27.5350 C   0  0  0  0  0  0  0  0  0  0  0  0
  -17.0450   21.4643   27.9719 H   0  0  0  0  0  0  0  0  0  0  0  0
  -18.1979   19.6707   28.0272 C   0  0  0  0  0  0  0  0  0  0  0  0
  -18.8089   19.9758   28.8381 H   0  0  0  0  0  0  0  0  0  0  0  0
  1  2  1  0
  2  3  1  0
  2 26  2  0
  3  4  1  0
  3 20  2  0
  4  5  1  0
  4  6  1  0
  6  7  1  0
  6  8  1  0
  6  9  1  0
  9 10  1  0
  9 18  2  0
 10 11  1  0
 10 15  2  0
 11 12  1  0
 11 13  1  0
 11 14  1  0
 15 16  1  0
 16 17  1  0
 16 18  1  0
 18 19  1  0
 20 21  1  0
 20 22  1  0
 22 23  1  0
 22 24  2  0
 24 25  1  0
 24 26  1  0
 26 27  1  0
M  END
$$$$
