F369_40
     RDKit          3D

 32 33  0  0  0  0  0  0  0  0999 V2000
  -19.7337   15.8657   27.6560 O   0  0  0  0  0  0  0  0  0  0  0  0
  -18.9872   15.4939   26.7721 C   0  0  0  0  0  0  0  0  0  0  0  0
  -19.0522   14.2159   26.2937 N   0  0  0  0  0  0  0  0  0  0  0  0
  -18.3732   14.0131   25.5534 H   0  0  0  0  0  0  0  0  0  0  0  0
  -19.9012   13.1922   26.6859 C   0  0  0  0  0  0  0  0  0  0  0  0
  -20.8966   13.2492   27.5946 C   0  0  0  0  0  0  0  0  0  0  0  0
  -21.2596   14.0421   28.1939 H   0  0  0  0  0  0  0  0  0  0  0  0
  -21.4182   11.9993   27.6189 N   0  0  0  0  0  0  0  0  0  0  0  0
  -22.5112   11.5122   28.4336 C   0  0  0  0  0  0  0  0  0  0  0  0
  -22.6362   10.4460   28.2160 H   0  0  0  0  0  0  0  0  0  0  0  0
  -22.2150   11.6097   29.4839 H   0  0  0  0  0  0  0  0  0  0  0  0
  -23.8019   12.2701   28.1779 C   0  0  0  0  0  0  0  0  0  0  0  0
  -24.1190   12.1708   27.1345 H   0  0  0  0  0  0  0  0  0  0  0  0
  -23.6807   13.3383   28.3891 H   0  0  0  0  0  0  0  0  0  0  0  0
  -24.6022   11.8844   28.8163 H   0  0  0  0  0  0  0  0  0  0  0  0
  -20.7849   11.1580   26.7496 N   0  0  0  0  0  0  0  0  0  0  0  0
  -19.8607   11.8934   26.1870 C   0  0  0  0  0  0  0  0  0  0  0  0
  -19.1881   11.5287   25.4548 H   0  0  0  0  0  0  0  0  0  0  0  0
  -17.9331   16.4028   26.1575 C   0  0  0  0  0  0  0  0  0  0  0  0
  -18.0762   16.3654   25.0702 H   0  0  0  0  0  0  0  0  0  0  0  0
  -18.0529   17.8541   26.6410 C   0  0  0  0  0  0  0  0  0  0  0  0
  -18.5555   18.4834   25.8989 H   0  0  0  0  0  0  0  0  0  0  0  0
  -18.6276   17.9341   27.5700 H   0  0  0  0  0  0  0  0  0  0  0  0
  -16.6210   18.3163   26.8709 C   0  0  0  0  0  0  0  0  0  0  0  0
  -16.1781   18.6560   25.9272 H   0  0  0  0  0  0  0  0  0  0  0  0
  -16.5595   19.1364   27.5917 H   0  0  0  0  0  0  0  0  0  0  0  0
  -15.9170   17.0625   27.3583 C   0  0  0  0  0  0  0  0  0  0  0  0
  -16.1581   16.8761   28.4105 H   0  0  0  0  0  0  0  0  0  0  0  0
  -14.8297   17.1344   27.2669 H   0  0  0  0  0  0  0  0  0  0  0  0
  -16.4966   15.9626   26.4773 C   0  0  0  0  0  0  0  0  0  0  0  0
  -16.4279   14.9810   26.9568 H   0  0  0  0  0  0  0  0  0  0  0  0
  -15.9213   15.9085   25.5439 H   0  0  0  0  0  0  0  0  0  0  0  0
  1  2  2  0
  2  3  1  0
  2 19  1  0
  3  4  1  0
  3  5  1  0
  5  6  2  0
  5 17  1  0
  6  7  1  0
  6  8  1  0
  8  9  1  0
  8 16  1  0
  9 10  1  0
  9 11  1  0
  9 12  1  0
 12 13  1  0
 12 14  1  0
 12 15  1  0
 16 17  2  0
 17 18  1  0
 19 20  1  0
 19 21  1  0
 19 30  1  0
 21 22  1  0
 21 23  1  0
 21 24  1  0
 24 25  1  0
 24 26  1  0
 24 27  1  0
 27 28  1  0
 27 29  1  0
 27 30  1  0
 30 31  1  0
 30 32  1  0
M  END
$$$$
