F393_48
     RDKit          3D

 24 24  0  0  0  0  0  0  0  0999 V2000
  -21.0854   11.3336   26.8115 O   0  0  0  0  0  0  0  0  0  0  0  0
  -20.7426   12.4732   27.1006 C   0  0  0  0  0  0  0  0  0  0  0  0
  -21.4739   13.3196   27.8754 O   0  0  0  0  0  0  0  0  0  0  0  0
  -22.6821   12.7585   28.4043 C   0  0  0  0  0  0  0  0  0  0  0  0
  -23.2869   12.3487   27.5884 H   0  0  0  0  0  0  0  0  0  0  0  0
  -22.4377   11.9651   29.1191 H   0  0  0  0  0  0  0  0  0  0  0  0
  -23.4483   13.8629   29.1057 C   0  0  0  0  0  0  0  0  0  0  0  0
  -23.6787   14.6759   28.4086 H   0  0  0  0  0  0  0  0  0  0  0  0
  -22.8469   14.2954   29.9125 H   0  0  0  0  0  0  0  0  0  0  0  0
  -24.3836   13.4829   29.5268 H   0  0  0  0  0  0  0  0  0  0  0  0
  -19.5635   13.0207   26.6653 N   0  0  0  0  0  0  0  0  0  0  0  0
  -18.6353   12.2542   25.8348 C   0  0  0  0  0  0  0  0  0  0  0  0
  -17.7639   12.0378   26.4638 H   0  0  0  0  0  0  0  0  0  0  0  0
  -19.0729   11.3012   25.5205 H   0  0  0  0  0  0  0  0  0  0  0  0
  -18.2066   13.0708   24.6157 C   0  0  0  0  0  0  0  0  0  0  0  0
  -19.0487   13.2350   23.9325 H   0  0  0  0  0  0  0  0  0  0  0  0
  -17.4243   12.5395   24.0641 H   0  0  0  0  0  0  0  0  0  0  0  0
  -17.6742   14.3426   25.0141 O   0  0  0  0  0  0  0  0  0  0  0  0
  -18.6591   15.1064   25.7268 C   0  0  0  0  0  0  0  0  0  0  0  0
  -18.2089   16.0686   25.9902 H   0  0  0  0  0  0  0  0  0  0  0  0
  -19.5077   15.3028   25.0600 H   0  0  0  0  0  0  0  0  0  0  0  0
  -19.1092   14.3742   26.9919 C   0  0  0  0  0  0  0  0  0  0  0  0
  -19.8826   14.9520   27.5055 H   0  0  0  0  0  0  0  0  0  0  0  0
  -18.2617   14.2577   27.6769 H   0  0  0  0  0  0  0  0  0  0  0  0
  1  2  2  0
  2  3  1  0
  2 11  1  0
  3  4  1  0
  4  5  1  0
  4  6  1  0
  4  7  1  0
  7  8  1  0
  7  9  1  0
  7 10  1  0
 11 12  1  0
 11 22  1  0
 12 13  1  0
 12 14  1  0
 12 15  1  0
 15 16  1  0
 15 17  1  0
 15 18  1  0
 18 19  1  0
 19 20  1  0
 19 21  1  0
 19 22  1  0
 22 23  1  0
 22 24  1  0
M  END
$$$$
