F126_98
     RDKit          3D

 23 23  0  0  0  0  0  0  0  0999 V2000
  -17.2974   17.0758   25.7473 Cl  0  0  0  0  0  0  0  0  0  0  0  0
  -18.2705   15.7165   26.1600 C   0  0  0  0  0  0  0  0  0  0  0  0
  -18.3160   14.5356   25.4018 C   0  0  0  0  0  0  0  0  0  0  0  0
  -17.5541   14.2794   24.1614 C   0  0  0  0  0  0  0  0  0  0  0  0
  -17.1499   15.0804   23.3318 O   0  0  0  0  0  0  0  0  0  0  0  0
  -17.2424   12.9930   23.8638 N   0  0  0  0  0  0  0  0  0  0  0  0
  -16.7187   12.8048   23.0003 H   0  0  0  0  0  0  0  0  0  0  0  0
  -17.5410   12.2378   24.4940 H   0  0  0  0  0  0  0  0  0  0  0  0
  -19.1204   13.5289   25.8267 N   0  0  0  0  0  0  0  0  0  0  0  0
  -19.8445   13.6598   26.9276 C   0  0  0  0  0  0  0  0  0  0  0  0
  -20.7221   12.5110   27.3556 C   0  0  0  0  0  0  0  0  0  0  0  0
  -20.4343   12.2190   28.3735 H   0  0  0  0  0  0  0  0  0  0  0  0
  -22.1912   12.9285   27.3873 C   0  0  0  0  0  0  0  0  0  0  0  0
  -22.5549   13.2111   26.3922 H   0  0  0  0  0  0  0  0  0  0  0  0
  -22.3401   13.7884   28.0504 H   0  0  0  0  0  0  0  0  0  0  0  0
  -22.8189   12.1091   27.7533 H   0  0  0  0  0  0  0  0  0  0  0  0
  -20.5143   11.2991   26.4472 C   0  0  0  0  0  0  0  0  0  0  0  0
  -20.8081   11.5122   25.4133 H   0  0  0  0  0  0  0  0  0  0  0  0
  -21.1093   10.4477   26.7959 H   0  0  0  0  0  0  0  0  0  0  0  0
  -19.4628   10.9929   26.4370 H   0  0  0  0  0  0  0  0  0  0  0  0
  -19.8173   14.7748   27.6636 N   0  0  0  0  0  0  0  0  0  0  0  0
  -19.0546   15.7909   27.3051 C   0  0  0  0  0  0  0  0  0  0  0  0
  -19.0475   16.6671   27.9034 H   0  0  0  0  0  0  0  0  0  0  0  0
  1  2  1  0
  2  3  1  0
  2 22  2  0
  3  4  1  0
  3  9  2  0
  4  5  2  0
  4  6  1  0
  6  7  1  0
  6  8  1  0
  9 10  1  0
 10 11  1  0
 10 21  2  0
 11 12  1  0
 11 13  1  0
 11 17  1  0
 13 14  1  0
 13 15  1  0
 13 16  1  0
 17 18  1  0
 17 19  1  0
 17 20  1  0
 21 22  1  0
 22 23  1  0
M  END
$$$$
