F369_3
     RDKit          3D

 32 33  0  0  0  0  0  0  0  0999 V2000
  -15.9889   15.7695   27.9336 O   0  0  0  0  0  0  0  0  0  0  0  0
  -16.0933   16.5095   26.9753 C   0  0  0  0  0  0  0  0  0  0  0  0
  -16.9305   16.1999   25.9411 N   0  0  0  0  0  0  0  0  0  0  0  0
  -16.9346   16.8932   25.1865 H   0  0  0  0  0  0  0  0  0  0  0  0
  -17.7460   15.0877   25.7972 C   0  0  0  0  0  0  0  0  0  0  0  0
  -18.0420   14.1565   26.7273 C   0  0  0  0  0  0  0  0  0  0  0  0
  -17.7485   14.0518   27.7386 H   0  0  0  0  0  0  0  0  0  0  0  0
  -18.8664   13.2852   26.0980 N   0  0  0  0  0  0  0  0  0  0  0  0
  -19.4732   12.0895   26.6437 C   0  0  0  0  0  0  0  0  0  0  0  0
  -19.5632   11.3630   25.8288 H   0  0  0  0  0  0  0  0  0  0  0  0
  -18.7858   11.6760   27.3898 H   0  0  0  0  0  0  0  0  0  0  0  0
  -20.8276   12.3666   27.2717 C   0  0  0  0  0  0  0  0  0  0  0  0
  -21.5310   12.7678   26.5345 H   0  0  0  0  0  0  0  0  0  0  0  0
  -20.7438   13.0968   28.0841 H   0  0  0  0  0  0  0  0  0  0  0  0
  -21.2517   11.4457   27.6826 H   0  0  0  0  0  0  0  0  0  0  0  0
  -19.1027   13.6418   24.8013 N   0  0  0  0  0  0  0  0  0  0  0  0
  -18.4142   14.7404   24.6266 C   0  0  0  0  0  0  0  0  0  0  0  0
  -18.3864   15.2743   23.7124 H   0  0  0  0  0  0  0  0  0  0  0  0
  -15.3004   17.8020   26.8516 C   0  0  0  0  0  0  0  0  0  0  0  0
  -14.6214   17.8419   27.7127 H   0  0  0  0  0  0  0  0  0  0  0  0
  -14.4863   17.8714   25.5528 C   0  0  0  0  0  0  0  0  0  0  0  0
  -13.4329   17.6273   25.7267 H   0  0  0  0  0  0  0  0  0  0  0  0
  -14.8559   17.1716   24.7956 H   0  0  0  0  0  0  0  0  0  0  0  0
  -14.6424   19.3035   25.0614 C   0  0  0  0  0  0  0  0  0  0  0  0
  -13.9177   19.9556   25.5630 H   0  0  0  0  0  0  0  0  0  0  0  0
  -14.4910   19.3915   23.9820 H   0  0  0  0  0  0  0  0  0  0  0  0
  -16.0549   19.6708   25.4803 C   0  0  0  0  0  0  0  0  0  0  0  0
  -16.7828   19.2237   24.7944 H   0  0  0  0  0  0  0  0  0  0  0  0
  -16.2174   20.7521   25.4900 H   0  0  0  0  0  0  0  0  0  0  0  0
  -16.1862   19.0569   26.8687 C   0  0  0  0  0  0  0  0  0  0  0  0
  -17.2314   18.8607   27.1277 H   0  0  0  0  0  0  0  0  0  0  0  0
  -15.7947   19.7628   27.6127 H   0  0  0  0  0  0  0  0  0  0  0  0
  1  2  2  0
  2  3  1  0
  2 19  1  0
  3  4  1  0
  3  5  1  0
  5  6  2  0
  5 17  1  0
  6  7  1  0
  6  8  1  0
  8  9  1  0
  8 16  1  0
  9 10  1  0
  9 11  1  0
  9 12  1  0
 12 13  1  0
 12 14  1  0
 12 15  1  0
 16 17  2  0
 17 18  1  0
 19 20  1  0
 19 21  1  0
 19 30  1  0
 21 22  1  0
 21 23  1  0
 21 24  1  0
 24 25  1  0
 24 26  1  0
 24 27  1  0
 27 28  1  0
 27 29  1  0
 27 30  1  0
 30 31  1  0
 30 32  1  0
M  END
$$$$
