F535_99
     RDKit          3D

 23 24  0  0  0  0  0  0  0  0999 V2000
  -19.0277   13.6405   24.9769 N   0  0  0  0  0  0  0  0  0  0  0  0
  -19.6024   13.1455   24.2778 H   0  0  0  0  0  0  0  0  0  0  0  0
  -19.6692   14.3382   25.3798 H   0  0  0  0  0  0  0  0  0  0  0  0
  -18.6695   12.6629   26.0557 C   0  0  0  0  0  0  0  0  0  0  0  0
  -17.8668   12.0342   25.6592 H   0  0  0  0  0  0  0  0  0  0  0  0
  -18.3004   13.2495   26.9039 H   0  0  0  0  0  0  0  0  0  0  0  0
  -19.8431   11.8486   26.4448 C   0  0  0  0  0  0  0  0  0  0  0  0
  -20.8619   12.2645   27.2087 N   0  0  0  0  0  0  0  0  0  0  0  0
  -21.7109   11.2174   27.3219 C   0  0  0  0  0  0  0  0  0  0  0  0
  -21.2226   10.2042   26.6437 N   0  0  0  0  0  0  0  0  0  0  0  0
  -20.0508   10.6119   26.0933 N   0  0  0  0  0  0  0  0  0  0  0  0
  -22.8997   11.3760   28.0953 C   0  0  0  0  0  0  0  0  0  0  0  0
  -23.5647   10.5559   28.1864 H   0  0  0  0  0  0  0  0  0  0  0  0
  -23.1608   12.5709   28.7023 C   0  0  0  0  0  0  0  0  0  0  0  0
  -24.0401   12.7041   29.2812 H   0  0  0  0  0  0  0  0  0  0  0  0
  -22.2411   13.6565   28.5574 C   0  0  0  0  0  0  0  0  0  0  0  0
  -22.4609   14.5795   29.0347 H   0  0  0  0  0  0  0  0  0  0  0  0
  -21.1002   13.5089   27.8183 C   0  0  0  0  0  0  0  0  0  0  0  0
  -20.3694   14.2579   27.6600 H   0  0  0  0  0  0  0  0  0  0  0  0
  -17.8807   14.3098   24.3199 C   0  0  0  0  0  0  0  0  0  0  0  0
  -17.2541   13.5444   23.8575 H   0  0  0  0  0  0  0  0  0  0  0  0
  -17.3296   14.8701   25.0786 H   0  0  0  0  0  0  0  0  0  0  0  0
  -18.2843   14.9856   23.5623 H   0  0  0  0  0  0  0  0  0  0  0  0
  1  2  1  0
  1  3  1  0
  1  4  1  0
  1 20  1  0
  4  5  1  0
  4  6  1  0
  4  7  1  0
  7  8  1  0
  7 11  2  0
  8  9  1  0
  8 18  1  0
  9 10  2  0
  9 12  1  0
 10 11  1  0
 12 13  1  0
 12 14  2  0
 14 15  1  0
 14 16  1  0
 16 17  1  0
 16 18  2  0
 18 19  1  0
 20 21  1  0
 20 22  1  0
 20 23  1  0
M  END
$$$$
