F709_46
     RDKit          3D

 29 30  0  0  0  0  0  0  0  0999 V2000
  -15.8178   15.3068   25.7402 O   0  0  0  0  0  0  0  0  0  0  0  0
  -16.9684   15.6394   25.9727 C   0  0  0  0  0  0  0  0  0  0  0  0
  -17.2366   16.9065   26.2953 N   0  0  0  0  0  0  0  0  0  0  0  0
  -16.9637   17.1691   27.2488 H   0  0  0  0  0  0  0  0  0  0  0  0
  -17.1321   17.5964   25.5473 H   0  0  0  0  0  0  0  0  0  0  0  0
  -18.0381   14.7854   25.9115 N   0  0  0  0  0  0  0  0  0  0  0  0
  -17.8485   13.4492   25.3400 C   0  0  0  0  0  0  0  0  0  0  0  0
  -16.8062   13.2813   25.0493 H   0  0  0  0  0  0  0  0  0  0  0  0
  -18.4551   13.4035   24.4274 H   0  0  0  0  0  0  0  0  0  0  0  0
  -18.2944   12.3653   26.3211 C   0  0  0  0  0  0  0  0  0  0  0  0
  -17.6576   12.3846   27.2138 H   0  0  0  0  0  0  0  0  0  0  0  0
  -18.1790   11.3791   25.8631 H   0  0  0  0  0  0  0  0  0  0  0  0
  -19.6707   12.5945   26.7863 N   0  0  0  0  0  0  0  0  0  0  0  0
  -20.6162   11.5768   26.7060 C   0  0  0  0  0  0  0  0  0  0  0  0
  -20.3354   10.6252   25.9766 O   0  0  0  0  0  0  0  0  0  0  0  0
  -21.8616   11.6433   27.4376 C   0  0  0  0  0  0  0  0  0  0  0  0
  -23.0607   11.5404   26.7890 O   0  0  0  0  0  0  0  0  0  0  0  0
  -24.0454   11.6925   27.7018 C   0  0  0  0  0  0  0  0  0  0  0  0
  -25.0619   11.6351   27.4067 H   0  0  0  0  0  0  0  0  0  0  0  0
  -23.5038   11.9094   28.9225 C   0  0  0  0  0  0  0  0  0  0  0  0
  -24.0376   12.0653   29.8236 H   0  0  0  0  0  0  0  0  0  0  0  0
  -22.0982   11.8948   28.7571 C   0  0  0  0  0  0  0  0  0  0  0  0
  -21.3544   12.0465   29.4973 H   0  0  0  0  0  0  0  0  0  0  0  0
  -19.9144   13.9404   27.3235 C   0  0  0  0  0  0  0  0  0  0  0  0
  -20.9772   14.1203   27.4943 H   0  0  0  0  0  0  0  0  0  0  0  0
  -19.3921   13.9973   28.2854 H   0  0  0  0  0  0  0  0  0  0  0  0
  -19.4066   15.0463   26.3797 C   0  0  0  0  0  0  0  0  0  0  0  0
  -19.4860   16.0041   26.8985 H   0  0  0  0  0  0  0  0  0  0  0  0
  -20.0398   15.0931   25.4854 H   0  0  0  0  0  0  0  0  0  0  0  0
  1  2  2  0
  2  3  1  0
  2  6  1  0
  3  4  1  0
  3  5  1  0
  6  7  1  0
  6 27  1  0
  7  8  1  0
  7  9  1  0
  7 10  1  0
 10 11  1  0
 10 12  1  0
 10 13  1  0
 13 14  1  0
 13 24  1  0
 14 15  2  0
 14 16  1  0
 16 17  1  0
 16 22  2  0
 17 18  1  0
 18 19  1  0
 18 20  2  0
 20 21  1  0
 20 22  1  0
 22 23  1  0
 24 25  1  0
 24 26  1  0
 24 27  1  0
 27 28  1  0
 27 29  1  0
M  END
$$$$
