F760_61
     RDKit          3D

 17 18  0  0  0  0  0  0  0  0999 V2000
  -17.7248   13.1904   23.5713 Br  0  0  0  0  0  0  0  0  0  0  0  0
  -18.8596   13.0812   25.0799 C   0  0  0  0  0  0  0  0  0  0  0  0
  -19.6545   11.9535   25.2710 C   0  0  0  0  0  0  0  0  0  0  0  0
  -19.6397   11.1483   24.5845 H   0  0  0  0  0  0  0  0  0  0  0  0
  -20.4718   11.9211   26.3929 C   0  0  0  0  0  0  0  0  0  0  0  0
  -21.3397   10.9115   26.7821 N   0  0  0  0  0  0  0  0  0  0  0  0
  -21.5183   10.0223   26.3000 H   0  0  0  0  0  0  0  0  0  0  0  0
  -21.9730   11.2310   27.9354 C   0  0  0  0  0  0  0  0  0  0  0  0
  -22.7721   10.4735   28.4340 O   0  0  0  0  0  0  0  0  0  0  0  0
  -21.4972   12.6054   28.4000 C   0  0  0  0  0  0  0  0  0  0  0  0
  -22.3386   13.3015   28.4244 H   0  0  0  0  0  0  0  0  0  0  0  0
  -21.0039   12.5184   29.3709 H   0  0  0  0  0  0  0  0  0  0  0  0
  -20.5249   12.9478   27.3139 C   0  0  0  0  0  0  0  0  0  0  0  0
  -19.7299   14.0730   27.1244 C   0  0  0  0  0  0  0  0  0  0  0  0
  -19.7541   14.8735   27.8202 H   0  0  0  0  0  0  0  0  0  0  0  0
  -18.8969   14.1365   26.0041 C   0  0  0  0  0  0  0  0  0  0  0  0
  -18.2866   14.9885   25.8490 H   0  0  0  0  0  0  0  0  0  0  0  0
  1  2  1  0
  2  3  1  0
  2 16  2  0
  3  4  1  0
  3  5  2  0
  5  6  1  0
  5 13  1  0
  6  7  1  0
  6  8  1  0
  8  9  2  0
  8 10  1  0
 10 11  1  0
 10 12  1  0
 10 13  1  0
 13 14  2  0
 14 15  1  0
 14 16  1  0
 16 17  1  0
M  END
$$$$
