F366_86
     RDKit          3D

 22 22  0  0  0  0  0  0  0  0999 V2000
  -24.3891   11.8378   30.0438 O   0  0  0  0  0  0  0  0  0  0  0  0
  -24.6253   11.4590   30.9083 H   0  0  0  0  0  0  0  0  0  0  0  0
  -23.6232   13.0118   30.2992 C   0  0  0  0  0  0  0  0  0  0  0  0
  -24.2207   13.6983   30.9087 H   0  0  0  0  0  0  0  0  0  0  0  0
  -22.7385   12.7112   30.8695 H   0  0  0  0  0  0  0  0  0  0  0  0
  -23.1948   13.6555   28.9820 C   0  0  0  0  0  0  0  0  0  0  0  0
  -24.0878   13.8413   28.3726 H   0  0  0  0  0  0  0  0  0  0  0  0
  -22.7230   14.6275   29.1755 H   0  0  0  0  0  0  0  0  0  0  0  0
  -22.2426   12.8050   28.2014 C   0  0  0  0  0  0  0  0  0  0  0  0
  -20.9833   13.1220   27.8250 C   0  0  0  0  0  0  0  0  0  0  0  0
  -20.4033   13.9943   27.9755 H   0  0  0  0  0  0  0  0  0  0  0  0
  -20.5158   12.0491   27.1500 N   0  0  0  0  0  0  0  0  0  0  0  0
  -19.2139   11.8779   26.5425 C   0  0  0  0  0  0  0  0  0  0  0  0
  -18.4605   12.1904   27.2735 H   0  0  0  0  0  0  0  0  0  0  0  0
  -19.0741   10.8085   26.3513 H   0  0  0  0  0  0  0  0  0  0  0  0
  -19.0705   12.6786   25.2606 C   0  0  0  0  0  0  0  0  0  0  0  0
  -19.2071   13.7501   25.4475 H   0  0  0  0  0  0  0  0  0  0  0  0
  -19.8141   12.3730   24.5170 H   0  0  0  0  0  0  0  0  0  0  0  0
  -18.0753   12.5314   24.8299 H   0  0  0  0  0  0  0  0  0  0  0  0
  -21.4378   11.0569   27.0790 N   0  0  0  0  0  0  0  0  0  0  0  0
  -22.4772   11.5204   27.7187 C   0  0  0  0  0  0  0  0  0  0  0  0
  -23.3806   10.9747   27.8419 H   0  0  0  0  0  0  0  0  0  0  0  0
  1  2  1  0
  1  3  1  0
  3  4  1  0
  3  5  1  0
  3  6  1  0
  6  7  1  0
  6  8  1  0
  6  9  1  0
  9 10  2  0
  9 21  1  0
 10 11  1  0
 10 12  1  0
 12 13  1  0
 12 20  1  0
 13 14  1  0
 13 15  1  0
 13 16  1  0
 16 17  1  0
 16 18  1  0
 16 19  1  0
 20 21  2  0
 21 22  1  0
M  END
$$$$
