F529_53
     RDKit          3D

 23 23  0  0  0  0  0  0  0  0999 V2000
  -20.5361   13.3102   27.2552 S   0  0  0  0  0  0  0  0  0  0  0  0
  -20.7831   14.5541   27.9667 O   0  0  0  0  0  0  0  0  0  0  0  0
  -21.6393   12.5090   26.7604 O   0  0  0  0  0  0  0  0  0  0  0  0
  -19.5313   12.2865   28.2985 C   0  0  0  0  0  0  0  0  0  0  0  0
  -18.6383   12.8430   28.5905 H   0  0  0  0  0  0  0  0  0  0  0  0
  -19.2622   11.3766   27.7587 H   0  0  0  0  0  0  0  0  0  0  0  0
  -20.1145   12.0306   29.1851 H   0  0  0  0  0  0  0  0  0  0  0  0
  -19.4713   13.6599   25.8841 C   0  0  0  0  0  0  0  0  0  0  0  0
  -18.6002   14.7628   25.8578 C   0  0  0  0  0  0  0  0  0  0  0  0
  -18.5672   15.6405   26.9385 N   0  0  0  0  0  0  0  0  0  0  0  0
  -19.2776   15.5035   27.6721 H   0  0  0  0  0  0  0  0  0  0  0  0
  -17.6458   16.7391   27.1002 C   0  0  0  0  0  0  0  0  0  0  0  0
  -16.6080   16.3892   27.0917 H   0  0  0  0  0  0  0  0  0  0  0  0
  -17.8247   17.2266   28.0637 H   0  0  0  0  0  0  0  0  0  0  0  0
  -17.7850   17.4906   26.3170 H   0  0  0  0  0  0  0  0  0  0  0  0
  -17.7496   14.9615   24.7621 C   0  0  0  0  0  0  0  0  0  0  0  0
  -17.0709   15.7722   24.7474 H   0  0  0  0  0  0  0  0  0  0  0  0
  -17.7919   14.0905   23.6816 C   0  0  0  0  0  0  0  0  0  0  0  0
  -17.1541   14.2467   22.8495 H   0  0  0  0  0  0  0  0  0  0  0  0
  -18.6723   13.0137   23.6862 C   0  0  0  0  0  0  0  0  0  0  0  0
  -18.7083   12.3539   22.8561 H   0  0  0  0  0  0  0  0  0  0  0  0
  -19.5026   12.8009   24.7827 C   0  0  0  0  0  0  0  0  0  0  0  0
  -20.1679   11.9749   24.7820 H   0  0  0  0  0  0  0  0  0  0  0  0
  1  2  2  0
  1  3  2  0
  1  4  1  0
  1  8  1  0
  4  5  1  0
  4  6  1  0
  4  7  1  0
  8  9  1  0
  8 22  2  0
  9 10  1  0
  9 16  2  0
 10 11  1  0
 10 12  1  0
 12 13  1  0
 12 14  1  0
 12 15  1  0
 16 17  1  0
 16 18  1  0
 18 19  1  0
 18 20  2  0
 20 21  1  0
 20 22  1  0
 22 23  1  0
M  END
$$$$
