F421_69
     RDKit          3D

 19 19  0  0  0  0  0  0  0  0999 V2000
  -15.8676   15.6404   26.0742 O   0  0  0  0  0  0  0  0  0  0  0  0
  -17.0881   15.7331   26.1836 C   0  0  0  0  0  0  0  0  0  0  0  0
  -17.5944   16.9961   26.4849 N   0  0  0  0  0  0  0  0  0  0  0  0
  -16.6997   18.0421   26.9611 C   0  0  0  0  0  0  0  0  0  0  0  0
  -17.1347   18.4982   27.8563 H   0  0  0  0  0  0  0  0  0  0  0  0
  -16.5998   18.7988   26.1777 H   0  0  0  0  0  0  0  0  0  0  0  0
  -15.7084   17.6587   27.2148 H   0  0  0  0  0  0  0  0  0  0  0  0
  -18.9901   17.3849   26.3311 C   0  0  0  0  0  0  0  0  0  0  0  0
  -19.0368   18.3924   25.9049 H   0  0  0  0  0  0  0  0  0  0  0  0
  -19.4627   17.3883   27.3175 H   0  0  0  0  0  0  0  0  0  0  0  0
  -19.5273   16.7123   25.6594 H   0  0  0  0  0  0  0  0  0  0  0  0
  -17.9706   14.5947   26.0044 C   0  0  0  0  0  0  0  0  0  0  0  0
  -18.6046   14.2917   24.8364 C   0  0  0  0  0  0  0  0  0  0  0  0
  -18.6143   14.7838   23.8987 H   0  0  0  0  0  0  0  0  0  0  0  0
  -19.2834   13.1552   25.0659 N   0  0  0  0  0  0  0  0  0  0  0  0
  -19.8725   12.6632   24.3674 H   0  0  0  0  0  0  0  0  0  0  0  0
  -19.1089   12.7025   26.3374 N   0  0  0  0  0  0  0  0  0  0  0  0
  -18.3104   13.5704   26.8909 C   0  0  0  0  0  0  0  0  0  0  0  0
  -17.9685   13.4826   27.8922 H   0  0  0  0  0  0  0  0  0  0  0  0
  1  2  2  0
  2  3  1  0
  2 12  1  0
  3  4  1  0
  3  8  1  0
  4  5  1  0
  4  6  1  0
  4  7  1  0
  8  9  1  0
  8 10  1  0
  8 11  1  0
 12 13  2  0
 12 18  1  0
 13 14  1  0
 13 15  1  0
 15 16  1  0
 15 17  1  0
 17 18  2  0
 18 19  1  0
M  END
$$$$
