F393_61
     RDKit          3D

 24 24  0  0  0  0  0  0  0  0999 V2000
  -21.1023   11.3361   26.8094 O   0  0  0  0  0  0  0  0  0  0  0  0
  -20.7522   12.4716   27.1056 C   0  0  0  0  0  0  0  0  0  0  0  0
  -21.4751   13.3155   27.8909 O   0  0  0  0  0  0  0  0  0  0  0  0
  -22.6862   12.7583   28.4173 C   0  0  0  0  0  0  0  0  0  0  0  0
  -23.2911   12.3515   27.6000 H   0  0  0  0  0  0  0  0  0  0  0  0
  -22.4457   11.9632   29.1315 H   0  0  0  0  0  0  0  0  0  0  0  0
  -23.4495   13.8646   29.1187 C   0  0  0  0  0  0  0  0  0  0  0  0
  -23.6758   14.6792   28.4221 H   0  0  0  0  0  0  0  0  0  0  0  0
  -22.8478   14.2941   29.9269 H   0  0  0  0  0  0  0  0  0  0  0  0
  -24.3868   13.4875   29.5378 H   0  0  0  0  0  0  0  0  0  0  0  0
  -19.5726   13.0165   26.6684 N   0  0  0  0  0  0  0  0  0  0  0  0
  -18.6527   12.2519   25.8271 C   0  0  0  0  0  0  0  0  0  0  0  0
  -17.7791   12.0262   26.4498 H   0  0  0  0  0  0  0  0  0  0  0  0
  -19.0967   11.3036   25.5076 H   0  0  0  0  0  0  0  0  0  0  0  0
  -18.2262   13.0759   24.6122 C   0  0  0  0  0  0  0  0  0  0  0  0
  -19.0711   13.2496   23.9347 H   0  0  0  0  0  0  0  0  0  0  0  0
  -17.4495   12.5450   24.0523 H   0  0  0  0  0  0  0  0  0  0  0  0
  -17.6853   14.3418   25.0177 O   0  0  0  0  0  0  0  0  0  0  0  0
  -18.6625   15.1049   25.7415 C   0  0  0  0  0  0  0  0  0  0  0  0
  -18.2060   16.0628   26.0101 H   0  0  0  0  0  0  0  0  0  0  0  0
  -19.5136   15.3109   25.0808 H   0  0  0  0  0  0  0  0  0  0  0  0
  -19.1098   14.3651   27.0032 C   0  0  0  0  0  0  0  0  0  0  0  0
  -19.8774   14.9428   27.5254 H   0  0  0  0  0  0  0  0  0  0  0  0
  -18.2592   14.2390   27.6828 H   0  0  0  0  0  0  0  0  0  0  0  0
  1  2  2  0
  2  3  1  0
  2 11  1  0
  3  4  1  0
  4  5  1  0
  4  6  1  0
  4  7  1  0
  7  8  1  0
  7  9  1  0
  7 10  1  0
 11 12  1  0
 11 22  1  0
 12 13  1  0
 12 14  1  0
 12 15  1  0
 15 16  1  0
 15 17  1  0
 15 18  1  0
 18 19  1  0
 19 20  1  0
 19 21  1  0
 19 22  1  0
 22 23  1  0
 22 24  1  0
M  END
$$$$
