F666_63
     RDKit          3D

 35 37  0  0  0  0  0  0  0  0999 V2000
  -14.4001   19.5739   25.4442 F   0  0  0  0  0  0  0  0  0  0  0  0
  -15.2893   18.5763   25.5494 C   0  0  0  0  0  0  0  0  0  0  0  0
  -14.8275   17.2666   25.5882 C   0  0  0  0  0  0  0  0  0  0  0  0
  -13.7887   17.0682   25.5357 H   0  0  0  0  0  0  0  0  0  0  0  0
  -15.7494   16.2296   25.6960 C   0  0  0  0  0  0  0  0  0  0  0  0
  -15.4021   15.2341   25.7260 H   0  0  0  0  0  0  0  0  0  0  0  0
  -17.1253   16.5160   25.7533 C   0  0  0  0  0  0  0  0  0  0  0  0
  -18.0511   15.4842   25.8432 N   0  0  0  0  0  0  0  0  0  0  0  0
  -19.0203   15.3820   26.9447 C   0  0  0  0  0  0  0  0  0  0  0  0
  -18.8760   16.1414   27.7197 H   0  0  0  0  0  0  0  0  0  0  0  0
  -20.0220   15.5505   26.5302 H   0  0  0  0  0  0  0  0  0  0  0  0
  -18.9654   13.9822   27.5770 C   0  0  0  0  0  0  0  0  0  0  0  0
  -19.7418   13.8921   28.3403 H   0  0  0  0  0  0  0  0  0  0  0  0
  -17.9991   13.8324   28.0725 H   0  0  0  0  0  0  0  0  0  0  0  0
  -19.0872   12.9349   26.5539 N   0  0  0  0  0  0  0  0  0  0  0  0
  -20.0139   11.9193   26.5750 C   0  0  0  0  0  0  0  0  0  0  0  0
  -20.0074   11.1018   25.6732 O   0  0  0  0  0  0  0  0  0  0  0  0
  -20.9872   11.8410   27.6875 C   0  0  0  0  0  0  0  0  0  0  0  0
  -20.5459   11.9749   28.6703 H   0  0  0  0  0  0  0  0  0  0  0  0
  -22.1340   10.8569   27.6232 C   0  0  0  0  0  0  0  0  0  0  0  0
  -22.2311   10.2376   26.7384 H   0  0  0  0  0  0  0  0  0  0  0  0
  -22.4311   10.3661   28.5419 H   0  0  0  0  0  0  0  0  0  0  0  0
  -22.4050   12.3241   27.4872 C   0  0  0  0  0  0  0  0  0  0  0  0
  -22.6952   12.6916   26.5090 H   0  0  0  0  0  0  0  0  0  0  0  0
  -22.8896   12.8296   28.3140 H   0  0  0  0  0  0  0  0  0  0  0  0
  -18.1094   13.0466   25.4640 C   0  0  0  0  0  0  0  0  0  0  0  0
  -17.1227   12.8661   25.9058 H   0  0  0  0  0  0  0  0  0  0  0  0
  -18.2708   12.2807   24.6989 H   0  0  0  0  0  0  0  0  0  0  0  0
  -18.1446   14.4394   24.8108 C   0  0  0  0  0  0  0  0  0  0  0  0
  -19.0831   14.5709   24.2597 H   0  0  0  0  0  0  0  0  0  0  0  0
  -17.3225   14.4894   24.0883 H   0  0  0  0  0  0  0  0  0  0  0  0
  -17.5625   17.8506   25.7338 C   0  0  0  0  0  0  0  0  0  0  0  0
  -18.5925   18.0738   25.8237 H   0  0  0  0  0  0  0  0  0  0  0  0
  -16.6401   18.8867   25.6229 C   0  0  0  0  0  0  0  0  0  0  0  0
  -16.9556   19.8966   25.6039 H   0  0  0  0  0  0  0  0  0  0  0  0
  1  2  1  0
  2  3  1  0
  2 34  2  0
  3  4  1  0
  3  5  2  0
  5  6  1  0
  5  7  1  0
  7  8  1  0
  7 32  2  0
  8  9  1  0
  8 29  1  0
  9 10  1  0
  9 11  1  0
  9 12  1  0
 12 13  1  0
 12 14  1  0
 12 15  1  0
 15 16  1  0
 15 26  1  0
 16 17  2  0
 16 18  1  0
 18 19  1  0
 18 20  1  0
 18 23  1  0
 20 21  1  0
 20 22  1  0
 20 23  1  0
 23 24  1  0
 23 25  1  0
 26 27  1  0
 26 28  1  0
 26 29  1  0
 29 30  1  0
 29 31  1  0
 32 33  1  0
 32 34  1  0
 34 35  1  0
M  END
$$$$
