F368_13
     RDKit          3D

 29 30  0  0  0  0  0  0  0  0999 V2000
  -19.2595   17.1948   27.7113 O   0  0  0  0  0  0  0  0  0  0  0  0
  -18.5235   17.4394   26.7739 C   0  0  0  0  0  0  0  0  0  0  0  0
  -18.1900   16.4696   25.8681 N   0  0  0  0  0  0  0  0  0  0  0  0
  -17.5542   16.7694   25.1199 H   0  0  0  0  0  0  0  0  0  0  0  0
  -18.6036   15.1439   25.8478 C   0  0  0  0  0  0  0  0  0  0  0  0
  -19.3356   14.4951   26.7769 C   0  0  0  0  0  0  0  0  0  0  0  0
  -19.7541   14.8115   27.6945 H   0  0  0  0  0  0  0  0  0  0  0  0
  -19.4675   13.2335   26.2967 N   0  0  0  0  0  0  0  0  0  0  0  0
  -20.1625   12.1227   26.9103 C   0  0  0  0  0  0  0  0  0  0  0  0
  -20.1585   11.2928   26.1942 H   0  0  0  0  0  0  0  0  0  0  0  0
  -19.5855   11.8109   27.7875 H   0  0  0  0  0  0  0  0  0  0  0  0
  -21.5815   12.4839   27.3106 C   0  0  0  0  0  0  0  0  0  0  0  0
  -22.0750   11.6258   27.7771 H   0  0  0  0  0  0  0  0  0  0  0  0
  -21.5893   13.3136   28.0247 H   0  0  0  0  0  0  0  0  0  0  0  0
  -22.1728   12.7865   26.4401 H   0  0  0  0  0  0  0  0  0  0  0  0
  -18.8442   13.0725   25.0919 N   0  0  0  0  0  0  0  0  0  0  0  0
  -18.3200   14.2413   24.8281 C   0  0  0  0  0  0  0  0  0  0  0  0
  -17.7610   14.4465   23.9523 H   0  0  0  0  0  0  0  0  0  0  0  0
  -17.8786   18.8281   26.4874 C   0  0  0  0  0  0  0  0  0  0  0  0
  -18.1334   19.2088   25.4866 H   0  0  0  0  0  0  0  0  0  0  0  0
  -18.0742   19.9348   27.5602 C   0  0  0  0  0  0  0  0  0  0  0  0
  -18.2075   19.5594   28.5806 H   0  0  0  0  0  0  0  0  0  0  0  0
  -18.8590   20.6662   27.3466 H   0  0  0  0  0  0  0  0  0  0  0  0
  -16.6381   20.3988   27.2531 C   0  0  0  0  0  0  0  0  0  0  0  0
  -16.0505   20.7294   28.1129 H   0  0  0  0  0  0  0  0  0  0  0  0
  -16.5800   21.1583   26.4651 H   0  0  0  0  0  0  0  0  0  0  0  0
  -16.3544   18.9688   26.7556 C   0  0  0  0  0  0  0  0  0  0  0  0
  -15.9675   18.3003   27.5340 H   0  0  0  0  0  0  0  0  0  0  0  0
  -15.7106   18.8972   25.8754 H   0  0  0  0  0  0  0  0  0  0  0  0
  1  2  2  0
  2  3  1  0
  2 19  1  0
  3  4  1  0
  3  5  1  0
  5  6  2  0
  5 17  1  0
  6  7  1  0
  6  8  1  0
  8  9  1  0
  8 16  1  0
  9 10  1  0
  9 11  1  0
  9 12  1  0
 12 13  1  0
 12 14  1  0
 12 15  1  0
 16 17  2  0
 17 18  1  0
 19 20  1  0
 19 21  1  0
 19 27  1  0
 21 22  1  0
 21 23  1  0
 21 24  1  0
 24 25  1  0
 24 26  1  0
 24 27  1  0
 27 28  1  0
 27 29  1  0
M  END
$$$$
