F760_65
     RDKit          3D

 17 18  0  0  0  0  0  0  0  0999 V2000
  -17.5160   13.4416   23.4187 Br  0  0  0  0  0  0  0  0  0  0  0  0
  -18.6374   13.3356   24.9375 C   0  0  0  0  0  0  0  0  0  0  0  0
  -19.4539   12.2223   25.1218 C   0  0  0  0  0  0  0  0  0  0  0  0
  -19.4632   11.4265   24.4243 H   0  0  0  0  0  0  0  0  0  0  0  0
  -20.2602   12.1917   26.2517 C   0  0  0  0  0  0  0  0  0  0  0  0
  -21.1452   11.1954   26.6363 N   0  0  0  0  0  0  0  0  0  0  0  0
  -21.3476   10.3168   26.1441 H   0  0  0  0  0  0  0  0  0  0  0  0
  -21.7598   11.5122   27.8004 C   0  0  0  0  0  0  0  0  0  0  0  0
  -22.5696   10.7649   28.2971 O   0  0  0  0  0  0  0  0  0  0  0  0
  -21.2503   12.8698   28.2784 C   0  0  0  0  0  0  0  0  0  0  0  0
  -22.0765   13.5830   28.3212 H   0  0  0  0  0  0  0  0  0  0  0  0
  -20.7491   12.7591   29.2429 H   0  0  0  0  0  0  0  0  0  0  0  0
  -20.2821   13.2066   27.1870 C   0  0  0  0  0  0  0  0  0  0  0  0
  -19.4655   14.3173   27.0043 C   0  0  0  0  0  0  0  0  0  0  0  0
  -19.4656   15.1085   27.7111 H   0  0  0  0  0  0  0  0  0  0  0  0
  -18.6428   14.3786   25.8763 C   0  0  0  0  0  0  0  0  0  0  0  0
  -18.0163   15.2197   25.7263 H   0  0  0  0  0  0  0  0  0  0  0  0
  1  2  1  0
  2  3  1  0
  2 16  2  0
  3  4  1  0
  3  5  2  0
  5  6  1  0
  5 13  1  0
  6  7  1  0
  6  8  1  0
  8  9  2  0
  8 10  1  0
 10 11  1  0
 10 12  1  0
 10 13  1  0
 13 14  2  0
 14 15  1  0
 14 16  1  0
 16 17  1  0
M  END
$$$$
