F205_99
     RDKit          3D

 20 20  0  0  0  0  0  0  0  0999 V2000
  -19.3743   11.7324   23.7793 O   0  0  0  0  0  0  0  0  0  0  0  0
  -18.9809   12.6058   24.5770 C   0  0  0  0  0  0  0  0  0  0  0  0
  -19.6012   12.7062   25.8373 N   0  0  0  0  0  0  0  0  0  0  0  0
  -20.6835   11.7872   26.1762 C   0  0  0  0  0  0  0  0  0  0  0  0
  -20.4110   11.2213   27.0721 H   0  0  0  0  0  0  0  0  0  0  0  0
  -20.8865   11.0705   25.3755 H   0  0  0  0  0  0  0  0  0  0  0  0
  -21.5990   12.3599   26.3563 H   0  0  0  0  0  0  0  0  0  0  0  0
  -19.1947   13.6900   26.7676 C   0  0  0  0  0  0  0  0  0  0  0  0
  -19.8922   13.7919   28.0954 C   0  0  0  0  0  0  0  0  0  0  0  0
  -20.9565   14.0096   27.9587 H   0  0  0  0  0  0  0  0  0  0  0  0
  -19.4755   14.5950   28.7130 H   0  0  0  0  0  0  0  0  0  0  0  0
  -19.7880   12.8624   28.6631 H   0  0  0  0  0  0  0  0  0  0  0  0
  -18.1618   14.5292   26.4534 C   0  0  0  0  0  0  0  0  0  0  0  0
  -17.8483   15.2646   27.1486 H   0  0  0  0  0  0  0  0  0  0  0  0
  -17.4913   14.4520   25.2029 C   0  0  0  0  0  0  0  0  0  0  0  0
  -16.6988   15.1203   24.9853 H   0  0  0  0  0  0  0  0  0  0  0  0
  -17.8884   13.5250   24.2855 C   0  0  0  0  0  0  0  0  0  0  0  0
  -17.2963   13.3980   23.0533 N   0  0  0  0  0  0  0  0  0  0  0  0
  -16.5319   13.9949   22.7720 H   0  0  0  0  0  0  0  0  0  0  0  0
  -17.6567   12.6770   22.4327 H   0  0  0  0  0  0  0  0  0  0  0  0
  1  2  2  0
  2  3  1  0
  2 17  1  0
  3  4  1  0
  3  8  1  0
  4  5  1  0
  4  6  1  0
  4  7  1  0
  8  9  1  0
  8 13  2  0
  9 10  1  0
  9 11  1  0
  9 12  1  0
 13 14  1  0
 13 15  1  0
 15 16  1  0
 15 17  2  0
 17 18  1  0
 18 19  1  0
 18 20  1  0
M  END
$$$$
