F421_50
     RDKit          3D

 19 19  0  0  0  0  0  0  0  0999 V2000
  -19.5008   17.0973   27.4357 O   0  0  0  0  0  0  0  0  0  0  0  0
  -18.6098   16.4302   26.9149 C   0  0  0  0  0  0  0  0  0  0  0  0
  -17.3623   17.0394   26.7940 N   0  0  0  0  0  0  0  0  0  0  0  0
  -17.2374   18.4795   26.9736 C   0  0  0  0  0  0  0  0  0  0  0  0
  -16.6652   18.8914   26.1360 H   0  0  0  0  0  0  0  0  0  0  0  0
  -16.7029   18.6691   27.9089 H   0  0  0  0  0  0  0  0  0  0  0  0
  -18.2077   18.9805   27.0096 H   0  0  0  0  0  0  0  0  0  0  0  0
  -16.1192   16.3299   26.5219 C   0  0  0  0  0  0  0  0  0  0  0  0
  -15.3247   16.7444   27.1510 H   0  0  0  0  0  0  0  0  0  0  0  0
  -15.8579   16.4736   25.4696 H   0  0  0  0  0  0  0  0  0  0  0  0
  -16.2022   15.2646   26.7464 H   0  0  0  0  0  0  0  0  0  0  0  0
  -18.8294   15.0726   26.4504 C   0  0  0  0  0  0  0  0  0  0  0  0
  -19.6838   14.1889   27.0394 C   0  0  0  0  0  0  0  0  0  0  0  0
  -20.2988   14.2775   27.8969 H   0  0  0  0  0  0  0  0  0  0  0  0
  -19.6349   13.0717   26.2946 N   0  0  0  0  0  0  0  0  0  0  0  0
  -20.1762   12.2069   26.4838 H   0  0  0  0  0  0  0  0  0  0  0  0
  -18.7863   13.1977   25.2381 N   0  0  0  0  0  0  0  0  0  0  0  0
  -18.3139   14.4078   25.3355 C   0  0  0  0  0  0  0  0  0  0  0  0
  -17.6282   14.8171   24.6359 H   0  0  0  0  0  0  0  0  0  0  0  0
  1  2  2  0
  2  3  1  0
  2 12  1  0
  3  4  1  0
  3  8  1  0
  4  5  1  0
  4  6  1  0
  4  7  1  0
  8  9  1  0
  8 10  1  0
  8 11  1  0
 12 13  2  0
 12 18  1  0
 13 14  1  0
 13 15  1  0
 15 16  1  0
 15 17  1  0
 17 18  2  0
 18 19  1  0
M  END
$$$$
