F584_0
     RDKit          3D

 27 28  0  0  0  0  0  0  0  0999 V2000
  -24.1972   11.2298   31.6264 O   0  0  0  0  0  0  0  0  0  0  0  0
  -23.1018   11.1602   32.5291 C   0  0  0  0  0  0  0  0  0  0  0  0
  -23.4982   10.9009   33.5160 H   0  0  0  0  0  0  0  0  0  0  0  0
  -22.6003   12.1301   32.6178 H   0  0  0  0  0  0  0  0  0  0  0  0
  -22.3980   10.3737   32.2376 H   0  0  0  0  0  0  0  0  0  0  0  0
  -23.9457   11.5641   30.3122 C   0  0  0  0  0  0  0  0  0  0  0  0
  -24.6333   12.6840   29.8231 C   0  0  0  0  0  0  0  0  0  0  0  0
  -24.4272   13.0421   28.4823 C   0  0  0  0  0  0  0  0  0  0  0  0
  -25.0496   14.1009   27.7792 N   0  0  0  0  0  0  0  0  0  0  0  0
  -24.6907   14.2696   26.8317 H   0  0  0  0  0  0  0  0  0  0  0  0
  -26.0554   14.9664   28.0737 C   0  0  0  0  0  0  0  0  0  0  0  0
  -26.3146   15.7170   27.1619 O   0  0  0  0  0  0  0  0  0  0  0  0
  -26.8178   14.9313   29.3522 C   0  0  0  0  0  0  0  0  0  0  0  0
  -27.3907   15.8646   29.4137 H   0  0  0  0  0  0  0  0  0  0  0  0
  -27.5370   14.1053   29.3222 H   0  0  0  0  0  0  0  0  0  0  0  0
  -25.8852   14.8521   30.5330 C   0  0  0  0  0  0  0  0  0  0  0  0
  -24.9879   15.4662   30.3847 H   0  0  0  0  0  0  0  0  0  0  0  0
  -26.4032   15.2502   31.4135 H   0  0  0  0  0  0  0  0  0  0  0  0
  -25.5111   13.4105   30.8198 C   0  0  0  0  0  0  0  0  0  0  0  0
  -26.4212   12.8151   30.9705 H   0  0  0  0  0  0  0  0  0  0  0  0
  -24.9902   13.4441   31.7857 H   0  0  0  0  0  0  0  0  0  0  0  0
  -23.5652   12.3069   27.6651 C   0  0  0  0  0  0  0  0  0  0  0  0
  -23.4210   12.5912   26.6546 H   0  0  0  0  0  0  0  0  0  0  0  0
  -22.8919   11.2042   28.1734 C   0  0  0  0  0  0  0  0  0  0  0  0
  -22.2364   10.6497   27.5523 H   0  0  0  0  0  0  0  0  0  0  0  0
  -23.0779   10.8289   29.4990 C   0  0  0  0  0  0  0  0  0  0  0  0
  -22.5611    9.9880   29.8790 H   0  0  0  0  0  0  0  0  0  0  0  0
  1  2  1  0
  1  6  1  0
  2  3  1  0
  2  4  1  0
  2  5  1  0
  6  7  1  0
  6 26  2  0
  7  8  2  0
  7 19  1  0
  8  9  1  0
  8 22  1  0
  9 10  1  0
  9 11  1  0
 11 12  2  0
 11 13  1  0
 13 14  1  0
 13 15  1  0
 13 16  1  0
 16 17  1  0
 16 18  1  0
 16 19  1  0
 19 20  1  0
 19 21  1  0
 22 23  1  0
 22 24  2  0
 24 25  1  0
 24 26  1  0
 26 27  1  0
M  END
$$$$
