F687_90
     RDKit          3D

 24 25  0  0  0  0  0  0  0  0999 V2000
  -25.0905   14.4173   30.3213 F   0  0  0  0  0  0  0  0  0  0  0  0
  -24.2836   13.4025   30.6676 C   0  0  0  0  0  0  0  0  0  0  0  0
  -23.3297   12.8996   29.7602 C   0  0  0  0  0  0  0  0  0  0  0  0
  -23.1514   13.3954   28.4811 N   0  0  0  0  0  0  0  0  0  0  0  0
  -23.4338   14.3424   28.2468 H   0  0  0  0  0  0  0  0  0  0  0  0
  -22.5710   12.6648   27.3636 C   0  0  0  0  0  0  0  0  0  0  0  0
  -22.8775   11.6127   27.4212 H   0  0  0  0  0  0  0  0  0  0  0  0
  -22.9538   13.0791   26.4232 H   0  0  0  0  0  0  0  0  0  0  0  0
  -21.0687   12.6952   27.2940 C   0  0  0  0  0  0  0  0  0  0  0  0
  -20.3848   13.7251   27.7310 N   0  0  0  0  0  0  0  0  0  0  0  0
  -19.0828   13.4026   27.5087 N   0  0  0  0  0  0  0  0  0  0  0  0
  -18.2970   14.0326   27.7543 H   0  0  0  0  0  0  0  0  0  0  0  0
  -18.9533   12.1847   26.9430 C   0  0  0  0  0  0  0  0  0  0  0  0
  -18.0121   11.7631   26.7001 H   0  0  0  0  0  0  0  0  0  0  0  0
  -20.2119   11.7159   26.8008 C   0  0  0  0  0  0  0  0  0  0  0  0
  -20.4959   10.7772   26.3967 H   0  0  0  0  0  0  0  0  0  0  0  0
  -22.5213   11.8352   30.1664 C   0  0  0  0  0  0  0  0  0  0  0  0
  -21.8073   11.4305   29.4973 H   0  0  0  0  0  0  0  0  0  0  0  0
  -22.6563   11.3047   31.4496 C   0  0  0  0  0  0  0  0  0  0  0  0
  -22.0371   10.4996   31.7519 H   0  0  0  0  0  0  0  0  0  0  0  0
  -23.5979   11.8244   32.3402 C   0  0  0  0  0  0  0  0  0  0  0  0
  -23.6903   11.4138   33.3132 H   0  0  0  0  0  0  0  0  0  0  0  0
  -24.4183   12.8797   31.9452 C   0  0  0  0  0  0  0  0  0  0  0  0
  -25.1417   13.2779   32.6085 H   0  0  0  0  0  0  0  0  0  0  0  0
  1  2  1  0
  2  3  1  0
  2 23  2  0
  3  4  1  0
  3 17  2  0
  4  5  1  0
  4  6  1  0
  6  7  1  0
  6  8  1  0
  6  9  1  0
  9 10  2  0
  9 15  1  0
 10 11  1  0
 11 12  1  0
 11 13  1  0
 13 14  1  0
 13 15  2  0
 15 16  1  0
 17 18  1  0
 17 19  1  0
 19 20  1  0
 19 21  2  0
 21 22  1  0
 21 23  1  0
 23 24  1  0
M  END
$$$$
