F367_26
     RDKit          3D

 31 32  0  0  0  0  0  0  0  0999 V2000
  -23.2641   12.5306   29.8734 O   0  0  0  0  0  0  0  0  0  0  0  0
  -23.4641   13.1836   28.8575 C   0  0  0  0  0  0  0  0  0  0  0  0
  -22.6140   12.9719   27.8135 N   0  0  0  0  0  0  0  0  0  0  0  0
  -22.7875   13.4176   26.9049 H   0  0  0  0  0  0  0  0  0  0  0  0
  -21.4659   12.0944   27.9211 C   0  0  0  0  0  0  0  0  0  0  0  0
  -21.7824   11.0752   27.6708 H   0  0  0  0  0  0  0  0  0  0  0  0
  -21.1201   12.0943   28.9610 H   0  0  0  0  0  0  0  0  0  0  0  0
  -20.4026   12.5661   26.9948 C   0  0  0  0  0  0  0  0  0  0  0  0
  -19.8849   13.8144   26.9125 C   0  0  0  0  0  0  0  0  0  0  0  0
  -20.0899   14.6991   27.4550 H   0  0  0  0  0  0  0  0  0  0  0  0
  -18.9613   13.7682   25.9265 N   0  0  0  0  0  0  0  0  0  0  0  0
  -18.1211   14.8415   25.4388 C   0  0  0  0  0  0  0  0  0  0  0  0
  -17.3973   14.4077   24.7400 H   0  0  0  0  0  0  0  0  0  0  0  0
  -18.7588   15.5312   24.8759 H   0  0  0  0  0  0  0  0  0  0  0  0
  -17.4020   15.5651   26.5629 C   0  0  0  0  0  0  0  0  0  0  0  0
  -16.7669   14.8767   27.1310 H   0  0  0  0  0  0  0  0  0  0  0  0
  -18.1138   16.0155   27.2626 H   0  0  0  0  0  0  0  0  0  0  0  0
  -16.7694   16.3613   26.1592 H   0  0  0  0  0  0  0  0  0  0  0  0
  -18.8736   12.5291   25.3804 N   0  0  0  0  0  0  0  0  0  0  0  0
  -19.7487   11.8109   26.0291 C   0  0  0  0  0  0  0  0  0  0  0  0
  -19.9162   10.7825   25.8297 H   0  0  0  0  0  0  0  0  0  0  0  0
  -24.5900   14.1271   28.7183 C   0  0  0  0  0  0  0  0  0  0  0  0
  -25.2301   14.2103   27.4752 C   0  0  0  0  0  0  0  0  0  0  0  0
  -24.8948   13.6046   26.6699 H   0  0  0  0  0  0  0  0  0  0  0  0
  -26.2567   15.0335   27.2526 N   0  0  0  0  0  0  0  0  0  0  0  0
  -26.7077   15.8079   28.2372 C   0  0  0  0  0  0  0  0  0  0  0  0
  -27.5253   16.4517   28.0292 H   0  0  0  0  0  0  0  0  0  0  0  0
  -26.1353   15.7820   29.5061 C   0  0  0  0  0  0  0  0  0  0  0  0
  -26.5193   16.4053   30.2708 H   0  0  0  0  0  0  0  0  0  0  0  0
  -25.0648   14.9341   29.7599 C   0  0  0  0  0  0  0  0  0  0  0  0
  -24.6310   14.9011   30.7252 H   0  0  0  0  0  0  0  0  0  0  0  0
  1  2  2  0
  2  3  1  0
  2 22  1  0
  3  4  1  0
  3  5  1  0
  5  6  1  0
  5  7  1  0
  5  8  1  0
  8  9  2  0
  8 20  1  0
  9 10  1  0
  9 11  1  0
 11 12  1  0
 11 19  1  0
 12 13  1  0
 12 14  1  0
 12 15  1  0
 15 16  1  0
 15 17  1  0
 15 18  1  0
 19 20  2  0
 20 21  1  0
 22 23  1  0
 22 30  2  0
 23 24  1  0
 23 25  2  0
 25 26  1  0
 26 27  1  0
 26 28  2  0
 28 29  1  0
 28 30  1  0
 30 31  1  0
M  END
$$$$
