F763_88
     RDKit          3D

 19 19  0  0  0  0  0  0  0  0999 V2000
  -15.8866   16.3914   25.8456 Br  0  0  0  0  0  0  0  0  0  0  0  0
  -17.1561   15.0258   25.9917 C   0  0  0  0  0  0  0  0  0  0  0  0
  -17.7995   14.5469   24.8916 C   0  0  0  0  0  0  0  0  0  0  0  0
  -17.6040   14.9304   23.9265 H   0  0  0  0  0  0  0  0  0  0  0  0
  -18.7697   13.5058   25.0071 C   0  0  0  0  0  0  0  0  0  0  0  0
  -19.4034   13.0405   24.0510 O   0  0  0  0  0  0  0  0  0  0  0  0
  -19.0231   12.9893   26.2817 N   0  0  0  0  0  0  0  0  0  0  0  0
  -20.0045   11.9158   26.4479 C   0  0  0  0  0  0  0  0  0  0  0  0
  -20.1994   11.4483   25.4749 H   0  0  0  0  0  0  0  0  0  0  0  0
  -19.5861   11.1196   27.0775 H   0  0  0  0  0  0  0  0  0  0  0  0
  -21.3199   12.4219   27.0371 C   0  0  0  0  0  0  0  0  0  0  0  0
  -21.7575   13.2183   26.4265 H   0  0  0  0  0  0  0  0  0  0  0  0
  -21.1586   12.8261   28.0420 H   0  0  0  0  0  0  0  0  0  0  0  0
  -22.2594   11.3580   27.1375 O   0  0  0  0  0  0  0  0  0  0  0  0
  -21.8799   10.6913   27.7378 H   0  0  0  0  0  0  0  0  0  0  0  0
  -18.3691   13.4832   27.4051 C   0  0  0  0  0  0  0  0  0  0  0  0
  -18.6341   13.0349   28.3315 H   0  0  0  0  0  0  0  0  0  0  0  0
  -17.4499   14.4821   27.2737 C   0  0  0  0  0  0  0  0  0  0  0  0
  -16.9457   14.8646   28.1239 H   0  0  0  0  0  0  0  0  0  0  0  0
  1  2  1  0
  2  3  2  0
  2 18  1  0
  3  4  1  0
  3  5  1  0
  5  6  2  0
  5  7  1  0
  7  8  1  0
  7 16  1  0
  8  9  1  0
  8 10  1  0
  8 11  1  0
 11 12  1  0
 11 13  1  0
 11 14  1  0
 14 15  1  0
 16 17  1  0
 16 18  2  0
 18 19  1  0
M  END
$$$$
