F374_42
     RDKit          3D

 18 18  0  0  0  0  0  0  0  0999 V2000
  -19.3060   16.2005   27.3900 O   0  0  0  0  0  0  0  0  0  0  0  0
  -18.5749   15.3899   26.8236 C   0  0  0  0  0  0  0  0  0  0  0  0
  -17.3531   15.8361   26.3997 N   0  0  0  0  0  0  0  0  0  0  0  0
  -16.7263   15.1334   25.9826 H   0  0  0  0  0  0  0  0  0  0  0  0
  -16.9143   17.2093   26.5319 C   0  0  0  0  0  0  0  0  0  0  0  0
  -17.4986   17.8256   25.8396 H   0  0  0  0  0  0  0  0  0  0  0  0
  -17.1405   17.5392   27.5508 H   0  0  0  0  0  0  0  0  0  0  0  0
  -15.4325   17.3531   26.2452 C   0  0  0  0  0  0  0  0  0  0  0  0
  -15.1222   18.3969   26.3517 H   0  0  0  0  0  0  0  0  0  0  0  0
  -14.8395   16.7458   26.9370 H   0  0  0  0  0  0  0  0  0  0  0  0
  -15.1980   17.0254   25.2271 H   0  0  0  0  0  0  0  0  0  0  0  0
  -18.8744   13.9995   26.5855 C   0  0  0  0  0  0  0  0  0  0  0  0
  -19.7429   13.2768   27.3513 N   0  0  0  0  0  0  0  0  0  0  0  0
  -19.7813   12.0614   26.8659 N   0  0  0  0  0  0  0  0  0  0  0  0
  -18.9536   12.0144   25.8112 N   0  0  0  0  0  0  0  0  0  0  0  0
  -18.8044   11.1572   25.2468 H   0  0  0  0  0  0  0  0  0  0  0  0
  -18.3802   13.1932   25.6138 C   0  0  0  0  0  0  0  0  0  0  0  0
  -17.6901   13.3813   24.8322 H   0  0  0  0  0  0  0  0  0  0  0  0
  1  2  2  0
  2  3  1  0
  2 12  1  0
  3  4  1  0
  3  5  1  0
  5  6  1  0
  5  7  1  0
  5  8  1  0
  8  9  1  0
  8 10  1  0
  8 11  1  0
 12 13  1  0
 12 17  2  0
 13 14  2  0
 14 15  1  0
 15 16  1  0
 15 17  1  0
 17 18  1  0
M  END
$$$$
