F558_93
     RDKit          3D

 32 33  0  0  0  0  0  0  0  0999 V2000
  -19.3489   11.6594   25.1289 O   0  0  0  0  0  0  0  0  0  0  0  0
  -19.3639   12.8718   25.2828 C   0  0  0  0  0  0  0  0  0  0  0  0
  -18.6708   13.7688   24.5332 O   0  0  0  0  0  0  0  0  0  0  0  0
  -17.8315   13.1819   23.5360 C   0  0  0  0  0  0  0  0  0  0  0  0
  -18.4270   12.5918   22.8332 H   0  0  0  0  0  0  0  0  0  0  0  0
  -17.0584   12.5638   24.0045 H   0  0  0  0  0  0  0  0  0  0  0  0
  -17.3436   13.9907   22.9859 H   0  0  0  0  0  0  0  0  0  0  0  0
  -20.0542   13.5352   26.2503 N   0  0  0  0  0  0  0  0  0  0  0  0
  -19.8793   14.5443   26.2586 H   0  0  0  0  0  0  0  0  0  0  0  0
  -20.9428   13.0282   27.2232 C   0  0  0  0  0  0  0  0  0  0  0  0
  -21.2787   11.6759   27.3215 C   0  0  0  0  0  0  0  0  0  0  0  0
  -20.8736   10.9682   26.6480 H   0  0  0  0  0  0  0  0  0  0  0  0
  -22.1629   11.2617   28.3119 C   0  0  0  0  0  0  0  0  0  0  0  0
  -22.4184   10.2352   28.3847 H   0  0  0  0  0  0  0  0  0  0  0  0
  -22.7177   12.1835   29.2019 C   0  0  0  0  0  0  0  0  0  0  0  0
  -23.6950   11.7286   30.2625 C   0  0  0  0  0  0  0  0  0  0  0  0
  -23.1786   11.6682   31.2298 H   0  0  0  0  0  0  0  0  0  0  0  0
  -24.0164   10.6988   30.0571 H   0  0  0  0  0  0  0  0  0  0  0  0
  -24.9062   12.6184   30.3823 C   0  0  0  0  0  0  0  0  0  0  0  0
  -25.7091   12.8980   29.2827 C   0  0  0  0  0  0  0  0  0  0  0  0
  -25.4945   12.4749   28.3367 H   0  0  0  0  0  0  0  0  0  0  0  0
  -26.8058   13.7423   29.4237 C   0  0  0  0  0  0  0  0  0  0  0  0
  -27.4230   13.9618   28.5889 H   0  0  0  0  0  0  0  0  0  0  0  0
  -27.1177   14.3000   30.5915 N   0  0  0  0  0  0  0  0  0  0  0  0
  -26.3614   14.0488   31.6585 C   0  0  0  0  0  0  0  0  0  0  0  0
  -26.6288   14.5081   32.5771 H   0  0  0  0  0  0  0  0  0  0  0  0
  -25.2500   13.2150   31.5893 C   0  0  0  0  0  0  0  0  0  0  0  0
  -24.6674   13.0428   32.4575 H   0  0  0  0  0  0  0  0  0  0  0  0
  -22.3835   13.5350   29.0851 C   0  0  0  0  0  0  0  0  0  0  0  0
  -22.8008   14.2457   29.7511 H   0  0  0  0  0  0  0  0  0  0  0  0
  -21.5002   13.9600   28.0984 C   0  0  0  0  0  0  0  0  0  0  0  0
  -21.2470   14.9853   28.0175 H   0  0  0  0  0  0  0  0  0  0  0  0
  1  2  2  0
  2  3  1  0
  2  8  1  0
  3  4  1  0
  4  5  1  0
  4  6  1  0
  4  7  1  0
  8  9  1  0
  8 10  1  0
 10 11  1  0
 10 31  2  0
 11 12  1  0
 11 13  2  0
 13 14  1  0
 13 15  1  0
 15 16  1  0
 15 29  2  0
 16 17  1  0
 16 18  1  0
 16 19  1  0
 19 20  1  0
 19 27  2  0
 20 21  1  0
 20 22  2  0
 22 23  1  0
 22 24  1  0
 24 25  2  0
 25 26  1  0
 25 27  1  0
 27 28  1  0
 29 30  1  0
 29 31  1  0
 31 32  1  0
M  END
$$$$
