F710_49
     RDKit          3D

 30 31  0  0  0  0  0  0  0  0999 V2000
  -24.7235   11.4834   29.5002 F   0  0  0  0  0  0  0  0  0  0  0  0
  -23.5753   11.7924   28.8805 C   0  0  0  0  0  0  0  0  0  0  0  0
  -23.0311   13.0575   29.0668 C   0  0  0  0  0  0  0  0  0  0  0  0
  -23.5216   13.7624   29.6861 H   0  0  0  0  0  0  0  0  0  0  0  0
  -21.8404   13.3780   28.4227 C   0  0  0  0  0  0  0  0  0  0  0  0
  -21.4153   14.3403   28.5321 H   0  0  0  0  0  0  0  0  0  0  0  0
  -21.2092   12.4289   27.6068 C   0  0  0  0  0  0  0  0  0  0  0  0
  -20.0213   12.7484   26.9620 N   0  0  0  0  0  0  0  0  0  0  0  0
  -19.9147   12.7905   25.4972 C   0  0  0  0  0  0  0  0  0  0  0  0
  -19.2655   11.9716   25.1644 H   0  0  0  0  0  0  0  0  0  0  0  0
  -20.8843   12.6691   25.0018 H   0  0  0  0  0  0  0  0  0  0  0  0
  -19.3275   14.1419   25.0608 C   0  0  0  0  0  0  0  0  0  0  0  0
  -20.0351   14.9472   25.2928 H   0  0  0  0  0  0  0  0  0  0  0  0
  -19.1784   14.1454   23.9761 H   0  0  0  0  0  0  0  0  0  0  0  0
  -18.0842   14.4604   25.7748 N   0  0  0  0  0  0  0  0  0  0  0  0
  -16.9633   14.7603   25.0499 C   0  0  0  0  0  0  0  0  0  0  0  0
  -16.8733   14.6125   23.8428 O   0  0  0  0  0  0  0  0  0  0  0  0
  -15.9300   15.2557   25.7354 N   0  0  0  0  0  0  0  0  0  0  0  0
  -15.0445   15.2660   25.2182 H   0  0  0  0  0  0  0  0  0  0  0  0
  -16.1399   16.0323   26.3661 H   0  0  0  0  0  0  0  0  0  0  0  0
  -18.2005   14.3936   27.2426 C   0  0  0  0  0  0  0  0  0  0  0  0
  -17.2349   14.5320   27.7332 H   0  0  0  0  0  0  0  0  0  0  0  0
  -18.8597   15.2140   27.5481 H   0  0  0  0  0  0  0  0  0  0  0  0
  -18.7820   13.0431   27.6933 C   0  0  0  0  0  0  0  0  0  0  0  0
  -18.9113   13.0404   28.7809 H   0  0  0  0  0  0  0  0  0  0  0  0
  -18.0598   12.2477   27.4688 H   0  0  0  0  0  0  0  0  0  0  0  0
  -21.7783   11.1571   27.4282 C   0  0  0  0  0  0  0  0  0  0  0  0
  -21.3047   10.4341   26.8204 H   0  0  0  0  0  0  0  0  0  0  0  0
  -22.9697   10.8378   28.0723 C   0  0  0  0  0  0  0  0  0  0  0  0
  -23.4139    9.8840   27.9554 H   0  0  0  0  0  0  0  0  0  0  0  0
  1  2  1  0
  2  3  1  0
  2 29  2  0
  3  4  1  0
  3  5  2  0
  5  6  1  0
  5  7  1  0
  7  8  1  0
  7 27  2  0
  8  9  1  0
  8 24  1  0
  9 10  1  0
  9 11  1  0
  9 12  1  0
 12 13  1  0
 12 14  1  0
 12 15  1  0
 15 16  1  0
 15 21  1  0
 16 17  2  0
 16 18  1  0
 18 19  1  0
 18 20  1  0
 21 22  1  0
 21 23  1  0
 21 24  1  0
 24 25  1  0
 24 26  1  0
 27 28  1  0
 27 29  1  0
 29 30  1  0
M  END
$$$$
