F374_55
     RDKit          3D

 18 18  0  0  0  0  0  0  0  0999 V2000
  -17.1675   15.1604   25.4075 O   0  0  0  0  0  0  0  0  0  0  0  0
  -18.1032   15.3185   26.1899 C   0  0  0  0  0  0  0  0  0  0  0  0
  -18.1646   16.5081   26.8625 N   0  0  0  0  0  0  0  0  0  0  0  0
  -18.9855   16.6525   27.4674 H   0  0  0  0  0  0  0  0  0  0  0  0
  -17.1631   17.5466   26.7420 C   0  0  0  0  0  0  0  0  0  0  0  0
  -17.0366   17.7811   25.6792 H   0  0  0  0  0  0  0  0  0  0  0  0
  -17.5442   18.4424   27.2424 H   0  0  0  0  0  0  0  0  0  0  0  0
  -15.8409   17.1218   27.3503 C   0  0  0  0  0  0  0  0  0  0  0  0
  -15.0998   17.9204   27.2495 H   0  0  0  0  0  0  0  0  0  0  0  0
  -15.9560   16.8918   28.4146 H   0  0  0  0  0  0  0  0  0  0  0  0
  -15.4528   16.2260   26.8545 H   0  0  0  0  0  0  0  0  0  0  0  0
  -19.1619   14.3738   26.4476 C   0  0  0  0  0  0  0  0  0  0  0  0
  -20.0147   14.4730   27.5086 N   0  0  0  0  0  0  0  0  0  0  0  0
  -20.8449   13.4626   27.4448 N   0  0  0  0  0  0  0  0  0  0  0  0
  -20.5255   12.7368   26.3627 N   0  0  0  0  0  0  0  0  0  0  0  0
  -21.0368   11.8779   26.0863 H   0  0  0  0  0  0  0  0  0  0  0  0
  -19.4924   13.2731   25.7281 C   0  0  0  0  0  0  0  0  0  0  0  0
  -19.0745   12.8626   24.8454 H   0  0  0  0  0  0  0  0  0  0  0  0
  1  2  2  0
  2  3  1  0
  2 12  1  0
  3  4  1  0
  3  5  1  0
  5  6  1  0
  5  7  1  0
  5  8  1  0
  8  9  1  0
  8 10  1  0
  8 11  1  0
 12 13  1  0
 12 17  2  0
 13 14  2  0
 14 15  1  0
 15 16  1  0
 15 17  1  0
 17 18  1  0
M  END
$$$$
