F5_49
     RDKit          3D

 21 21  0  0  0  0  0  0  0  0999 V2000
  -24.7126   12.6697   26.5253 Br  0  0  0  0  0  0  0  0  0  0  0  0
  -24.6399   12.5657   28.4134 C   0  0  0  0  0  0  0  0  0  0  0  0
  -23.6516   11.8080   29.0324 C   0  0  0  0  0  0  0  0  0  0  0  0
  -22.9358   11.2829   28.4593 H   0  0  0  0  0  0  0  0  0  0  0  0
  -23.6114   11.7370   30.4217 C   0  0  0  0  0  0  0  0  0  0  0  0
  -22.6309   10.9601   30.9814 O   0  0  0  0  0  0  0  0  0  0  0  0
  -22.9176    9.5488   31.1331 C   0  0  0  0  0  0  0  0  0  0  0  0
  -22.1369    9.1089   31.7515 H   0  0  0  0  0  0  0  0  0  0  0  0
  -22.9321    9.0959   30.1428 H   0  0  0  0  0  0  0  0  0  0  0  0
  -23.8890    9.4333   31.6128 H   0  0  0  0  0  0  0  0  0  0  0  0
  -24.5372   12.4280   31.2157 C   0  0  0  0  0  0  0  0  0  0  0  0
  -24.4990   12.4050   32.7441 C   0  0  0  0  0  0  0  0  0  0  0  0
  -24.2362   11.4115   33.0730 H   0  0  0  0  0  0  0  0  0  0  0  0
  -25.4320   12.7402   33.1654 H   0  0  0  0  0  0  0  0  0  0  0  0
  -23.4119   13.3411   33.2217 C   0  0  0  0  0  0  0  0  0  0  0  0
  -22.6000   12.8986   34.0657 O   0  0  0  0  0  0  0  0  0  0  0  0
  -23.4173   14.5143   32.7867 O   0  0  0  0  0  0  0  0  0  0  0  0
  -25.5249   13.1761   30.5772 C   0  0  0  0  0  0  0  0  0  0  0  0
  -26.2480   13.6896   31.1621 H   0  0  0  0  0  0  0  0  0  0  0  0
  -25.5787   13.2463   29.1872 C   0  0  0  0  0  0  0  0  0  0  0  0
  -26.3382   13.8160   28.7190 H   0  0  0  0  0  0  0  0  0  0  0  0
  1  2  1  0
  2  3  1  0
  2 20  2  0
  3  4  1  0
  3  5  2  0
  5  6  1  0
  5 11  1  0
  6  7  1  0
  7  8  1  0
  7  9  1  0
  7 10  1  0
 11 12  1  0
 11 18  2  0
 12 13  1  0
 12 14  1  0
 12 15  1  0
 15 16  1  0
 15 17  2  0
 18 19  1  0
 18 20  1  0
 20 21  1  0
M  END
$$$$
