F95_91
     RDKit          3D

 27 27  0  0  0  0  0  0  0  0999 V2000
  -18.1038   13.5824   24.4917 S   0  0  0  0  0  0  0  0  0  0  0  0
  -17.3113   12.4142   24.1761 O   0  0  0  0  0  0  0  0  0  0  0  0
  -18.7300   14.3835   23.4629 O   0  0  0  0  0  0  0  0  0  0  0  0
  -17.1230   14.6156   25.3939 N   0  0  0  0  0  0  0  0  0  0  0  0
  -17.3091   14.5481   26.3972 H   0  0  0  0  0  0  0  0  0  0  0  0
  -17.1377   15.5735   25.0353 H   0  0  0  0  0  0  0  0  0  0  0  0
  -19.3236   13.1332   25.6740 C   0  0  0  0  0  0  0  0  0  0  0  0
  -19.7179   14.0336   26.6680 C   0  0  0  0  0  0  0  0  0  0  0  0
  -19.2972   15.0093   26.6875 H   0  0  0  0  0  0  0  0  0  0  0  0
  -20.6452   13.6615   27.6345 C   0  0  0  0  0  0  0  0  0  0  0  0
  -20.9299   14.3560   28.3845 H   0  0  0  0  0  0  0  0  0  0  0  0
  -21.1920   12.3798   27.6270 C   0  0  0  0  0  0  0  0  0  0  0  0
  -22.1407   11.9542   28.7134 C   0  0  0  0  0  0  0  0  0  0  0  0
  -21.9176   12.4749   29.6529 H   0  0  0  0  0  0  0  0  0  0  0  0
  -22.0491   10.8797   28.9145 H   0  0  0  0  0  0  0  0  0  0  0  0
  -23.5076   12.2396   28.3336 N   0  0  0  0  0  0  0  0  0  0  0  0
  -23.7030   12.3596   27.3547 H   0  0  0  0  0  0  0  0  0  0  0  0
  -24.4851   12.3443   29.2233 C   0  0  0  0  0  0  0  0  0  0  0  0
  -24.2904   12.2044   30.4215 O   0  0  0  0  0  0  0  0  0  0  0  0
  -25.8431   12.6328   28.6501 C   0  0  0  0  0  0  0  0  0  0  0  0
  -25.7953   13.5057   27.9928 H   0  0  0  0  0  0  0  0  0  0  0  0
  -26.1918   11.7672   28.0795 H   0  0  0  0  0  0  0  0  0  0  0  0
  -26.5490   12.8385   29.4594 H   0  0  0  0  0  0  0  0  0  0  0  0
  -20.7964   11.4736   26.6463 C   0  0  0  0  0  0  0  0  0  0  0  0
  -21.1963   10.4906   26.6402 H   0  0  0  0  0  0  0  0  0  0  0  0
  -19.8676   11.8464   25.6798 C   0  0  0  0  0  0  0  0  0  0  0  0
  -19.5621   11.1447   24.9431 H   0  0  0  0  0  0  0  0  0  0  0  0
  1  2  2  0
  1  3  2  0
  1  4  1  0
  1  7  1  0
  4  5  1  0
  4  6  1  0
  7  8  1  0
  7 26  2  0
  8  9  1  0
  8 10  2  0
 10 11  1  0
 10 12  1  0
 12 13  1  0
 12 24  2  0
 13 14  1  0
 13 15  1  0
 13 16  1  0
 16 17  1  0
 16 18  1  0
 18 19  2  0
 18 20  1  0
 20 21  1  0
 20 22  1  0
 20 23  1  0
 24 25  1  0
 24 26  1  0
 26 27  1  0
M  END
$$$$
