F199_48
     RDKit          3D

 25 26  0  0  0  0  0  0  0  0999 V2000
  -24.0799   11.1986   27.5410 O   0  0  0  0  0  0  0  0  0  0  0  0
  -24.0690   12.4266   27.4875 C   0  0  0  0  0  0  0  0  0  0  0  0
  -22.8870   13.0756   27.2254 N   0  0  0  0  0  0  0  0  0  0  0  0
  -22.9736   14.1012   27.1995 H   0  0  0  0  0  0  0  0  0  0  0  0
  -21.6438   12.5109   27.0040 C   0  0  0  0  0  0  0  0  0  0  0  0
  -20.5441   13.2636   26.7973 C   0  0  0  0  0  0  0  0  0  0  0  0
  -20.3990   14.3103   26.7618 H   0  0  0  0  0  0  0  0  0  0  0  0
  -19.5397   12.3694   26.6230 N   0  0  0  0  0  0  0  0  0  0  0  0
  -18.1486   12.6402   26.3676 C   0  0  0  0  0  0  0  0  0  0  0  0
  -17.9921   13.7199   26.3095 H   0  0  0  0  0  0  0  0  0  0  0  0
  -17.8737   12.1716   25.4193 H   0  0  0  0  0  0  0  0  0  0  0  0
  -17.5595   12.2215   27.1874 H   0  0  0  0  0  0  0  0  0  0  0  0
  -19.9712   11.0830   26.7127 N   0  0  0  0  0  0  0  0  0  0  0  0
  -21.2568   11.1725   26.9461 C   0  0  0  0  0  0  0  0  0  0  0  0
  -21.8910   10.3332   27.0696 H   0  0  0  0  0  0  0  0  0  0  0  0
  -25.2282   13.2740   27.6816 C   0  0  0  0  0  0  0  0  0  0  0  0
  -25.5196   14.2592   26.8693 N   0  0  0  0  0  0  0  0  0  0  0  0
  -26.6304   14.8301   27.3261 O   0  0  0  0  0  0  0  0  0  0  0  0
  -27.0543   14.2128   28.4335 C   0  0  0  0  0  0  0  0  0  0  0  0
  -28.2792   14.7298   29.0636 C   0  0  0  0  0  0  0  0  0  0  0  0
  -28.5300   14.1595   29.9631 H   0  0  0  0  0  0  0  0  0  0  0  0
  -29.1239   14.6626   28.3712 H   0  0  0  0  0  0  0  0  0  0  0  0
  -28.1514   15.7778   29.3500 H   0  0  0  0  0  0  0  0  0  0  0  0
  -26.1910   13.2220   28.6914 C   0  0  0  0  0  0  0  0  0  0  0  0
  -26.2290   12.5352   29.4966 H   0  0  0  0  0  0  0  0  0  0  0  0
  1  2  2  0
  2  3  1  0
  2 16  1  0
  3  4  1  0
  3  5  1  0
  5  6  2  0
  5 14  1  0
  6  7  1  0
  6  8  1  0
  8  9  1  0
  8 13  1  0
  9 10  1  0
  9 11  1  0
  9 12  1  0
 13 14  2  0
 14 15  1  0
 16 17  2  0
 16 24  1  0
 17 18  1  0
 18 19  1  0
 19 20  1  0
 19 24  2  0
 20 21  1  0
 20 22  1  0
 20 23  1  0
 24 25  1  0
M  END
$$$$
