F584_1
     RDKit          3D

 27 28  0  0  0  0  0  0  0  0999 V2000
  -24.2542   11.2405   31.6319 O   0  0  0  0  0  0  0  0  0  0  0  0
  -23.1802   11.2364   32.5628 C   0  0  0  0  0  0  0  0  0  0  0  0
  -23.5878   10.9653   33.5419 H   0  0  0  0  0  0  0  0  0  0  0  0
  -22.7327   12.2321   32.6543 H   0  0  0  0  0  0  0  0  0  0  0  0
  -22.4290   10.4855   32.2971 H   0  0  0  0  0  0  0  0  0  0  0  0
  -23.9866   11.5760   30.3213 C   0  0  0  0  0  0  0  0  0  0  0  0
  -24.6847   12.6831   29.8182 C   0  0  0  0  0  0  0  0  0  0  0  0
  -24.4626   13.0416   28.4801 C   0  0  0  0  0  0  0  0  0  0  0  0
  -25.0911   14.0884   27.7642 N   0  0  0  0  0  0  0  0  0  0  0  0
  -24.7195   14.2609   26.8223 H   0  0  0  0  0  0  0  0  0  0  0  0
  -26.1159   14.9375   28.0400 C   0  0  0  0  0  0  0  0  0  0  0  0
  -26.3726   15.6816   27.1222 O   0  0  0  0  0  0  0  0  0  0  0  0
  -26.8986   14.8923   29.3058 C   0  0  0  0  0  0  0  0  0  0  0  0
  -27.4880   15.8161   29.3556 H   0  0  0  0  0  0  0  0  0  0  0  0
  -27.6032   14.0543   29.2661 H   0  0  0  0  0  0  0  0  0  0  0  0
  -25.9844   14.8315   30.5020 C   0  0  0  0  0  0  0  0  0  0  0  0
  -25.0952   15.4602   30.3670 H   0  0  0  0  0  0  0  0  0  0  0  0
  -26.5234   15.2227   31.3729 H   0  0  0  0  0  0  0  0  0  0  0  0
  -25.5910   13.3970   30.7985 C   0  0  0  0  0  0  0  0  0  0  0  0
  -26.4933   12.7867   30.9356 H   0  0  0  0  0  0  0  0  0  0  0  0
  -25.0867   13.4414   31.7727 H   0  0  0  0  0  0  0  0  0  0  0  0
  -23.5751   12.3193   27.6789 C   0  0  0  0  0  0  0  0  0  0  0  0
  -23.4190   12.6038   26.6703 H   0  0  0  0  0  0  0  0  0  0  0  0
  -22.8919   11.2291   28.2010 C   0  0  0  0  0  0  0  0  0  0  0  0
  -22.2170   10.6844   27.5921 H   0  0  0  0  0  0  0  0  0  0  0  0
  -23.0933   10.8537   29.5243 C   0  0  0  0  0  0  0  0  0  0  0  0
  -22.5689   10.0225   29.9148 H   0  0  0  0  0  0  0  0  0  0  0  0
  1  2  1  0
  1  6  1  0
  2  3  1  0
  2  4  1  0
  2  5  1  0
  6  7  1  0
  6 26  2  0
  7  8  2  0
  7 19  1  0
  8  9  1  0
  8 22  1  0
  9 10  1  0
  9 11  1  0
 11 12  2  0
 11 13  1  0
 13 14  1  0
 13 15  1  0
 13 16  1  0
 16 17  1  0
 16 18  1  0
 16 19  1  0
 19 20  1  0
 19 21  1  0
 22 23  1  0
 22 24  2  0
 24 25  1  0
 24 26  1  0
 26 27  1  0
M  END
$$$$
