F368_35
     RDKit          3D

 29 30  0  0  0  0  0  0  0  0999 V2000
  -19.3502   17.1397   27.8439 O   0  0  0  0  0  0  0  0  0  0  0  0
  -18.6395   17.4616   26.9102 C   0  0  0  0  0  0  0  0  0  0  0  0
  -18.2417   16.5426   25.9779 N   0  0  0  0  0  0  0  0  0  0  0  0
  -17.6340   16.9072   25.2352 H   0  0  0  0  0  0  0  0  0  0  0  0
  -18.5577   15.1912   25.9245 C   0  0  0  0  0  0  0  0  0  0  0  0
  -19.2636   14.4741   26.8232 C   0  0  0  0  0  0  0  0  0  0  0  0
  -19.7264   14.7424   27.7348 H   0  0  0  0  0  0  0  0  0  0  0  0
  -19.2920   13.2155   26.3186 N   0  0  0  0  0  0  0  0  0  0  0  0
  -19.9197   12.0464   26.8950 C   0  0  0  0  0  0  0  0  0  0  0  0
  -19.8999   11.2528   26.1392 H   0  0  0  0  0  0  0  0  0  0  0  0
  -19.3046   11.7193   27.7403 H   0  0  0  0  0  0  0  0  0  0  0  0
  -21.3411   12.3235   27.3501 C   0  0  0  0  0  0  0  0  0  0  0  0
  -21.7829   11.4227   27.7867 H   0  0  0  0  0  0  0  0  0  0  0  0
  -21.3648   13.1169   28.1040 H   0  0  0  0  0  0  0  0  0  0  0  0
  -21.9698   12.6405   26.5115 H   0  0  0  0  0  0  0  0  0  0  0  0
  -18.6291   13.1223   25.1278 N   0  0  0  0  0  0  0  0  0  0  0  0
  -18.1845   14.3305   24.8975 C   0  0  0  0  0  0  0  0  0  0  0  0
  -17.6202   14.5916   24.0400 H   0  0  0  0  0  0  0  0  0  0  0  0
  -18.0994   18.9007   26.6576 C   0  0  0  0  0  0  0  0  0  0  0  0
  -17.1674   18.9005   26.0719 H   0  0  0  0  0  0  0  0  0  0  0  0
  -19.1015   19.9442   26.0914 C   0  0  0  0  0  0  0  0  0  0  0  0
  -20.1482   19.7583   26.3557 H   0  0  0  0  0  0  0  0  0  0  0  0
  -19.0351   20.1270   25.0151 H   0  0  0  0  0  0  0  0  0  0  0  0
  -18.4143   20.9952   26.9831 C   0  0  0  0  0  0  0  0  0  0  0  0
  -19.0744   21.7348   27.4424 H   0  0  0  0  0  0  0  0  0  0  0  0
  -17.5820   21.5125   26.4922 H   0  0  0  0  0  0  0  0  0  0  0  0
  -17.9701   19.8344   27.8931 C   0  0  0  0  0  0  0  0  0  0  0  0
  -18.6759   19.6148   28.7031 H   0  0  0  0  0  0  0  0  0  0  0  0
  -16.9655   19.9259   28.3139 H   0  0  0  0  0  0  0  0  0  0  0  0
  1  2  2  0
  2  3  1  0
  2 19  1  0
  3  4  1  0
  3  5  1  0
  5  6  2  0
  5 17  1  0
  6  7  1  0
  6  8  1  0
  8  9  1  0
  8 16  1  0
  9 10  1  0
  9 11  1  0
  9 12  1  0
 12 13  1  0
 12 14  1  0
 12 15  1  0
 16 17  2  0
 17 18  1  0
 19 20  1  0
 19 21  1  0
 19 27  1  0
 21 22  1  0
 21 23  1  0
 21 24  1  0
 24 25  1  0
 24 26  1  0
 24 27  1  0
 27 28  1  0
 27 29  1  0
M  END
$$$$
