F488_36
     RDKit          3D

 39 40  0  0  0  0  0  0  0  0999 V2000
  -16.1356   15.0299   25.0780 O   0  0  0  0  0  0  0  0  0  0  0  0
  -16.8239   15.6786   25.8596 C   0  0  0  0  0  0  0  0  0  0  0  0
  -18.1667   15.1358   26.3458 C   0  0  0  0  0  0  0  0  0  0  0  0
  -18.1781   15.2322   27.4381 H   0  0  0  0  0  0  0  0  0  0  0  0
  -18.9839   15.7740   25.9879 H   0  0  0  0  0  0  0  0  0  0  0  0
  -18.4143   13.7745   26.0360 O   0  0  0  0  0  0  0  0  0  0  0  0
  -19.5294   13.1691   26.5570 C   0  0  0  0  0  0  0  0  0  0  0  0
  -20.4746   13.7767   27.3825 C   0  0  0  0  0  0  0  0  0  0  0  0
  -20.3754   14.7890   27.6757 H   0  0  0  0  0  0  0  0  0  0  0  0
  -21.5646   13.0374   27.8309 C   0  0  0  0  0  0  0  0  0  0  0  0
  -22.2890   13.4973   28.4543 H   0  0  0  0  0  0  0  0  0  0  0  0
  -21.7084   11.6978   27.4686 C   0  0  0  0  0  0  0  0  0  0  0  0
  -22.9043   10.9138   27.9289 C   0  0  0  0  0  0  0  0  0  0  0  0
  -23.7143   11.0076   27.1989 H   0  0  0  0  0  0  0  0  0  0  0  0
  -22.6557    9.8549   28.0490 H   0  0  0  0  0  0  0  0  0  0  0  0
  -23.2591   11.2760   28.8992 H   0  0  0  0  0  0  0  0  0  0  0  0
  -20.7494   11.0988   26.6503 C   0  0  0  0  0  0  0  0  0  0  0  0
  -20.8483   10.0808   26.3751 H   0  0  0  0  0  0  0  0  0  0  0  0
  -19.6571   11.8317   26.1968 C   0  0  0  0  0  0  0  0  0  0  0  0
  -18.9231   11.3771   25.5830 H   0  0  0  0  0  0  0  0  0  0  0  0
  -16.3835   16.8968   26.2686 N   0  0  0  0  0  0  0  0  0  0  0  0
  -15.0300   17.3489   25.9155 C   0  0  0  0  0  0  0  0  0  0  0  0
  -14.4478   17.3544   26.8459 H   0  0  0  0  0  0  0  0  0  0  0  0
  -14.5347   16.6518   25.2330 H   0  0  0  0  0  0  0  0  0  0  0  0
  -15.0351   18.7474   25.2931 C   0  0  0  0  0  0  0  0  0  0  0  0
  -15.5702   18.7620   24.3378 H   0  0  0  0  0  0  0  0  0  0  0  0
  -14.0144   19.1164   25.1564 H   0  0  0  0  0  0  0  0  0  0  0  0
  -15.7481   19.7167   26.2234 N   0  0  0  0  0  0  0  0  0  0  0  0
  -15.2358   19.7227   27.1169 H   0  0  0  0  0  0  0  0  0  0  0  0
  -15.7144   21.1223   25.6979 C   0  0  0  0  0  0  0  0  0  0  0  0
  -16.1916   21.7714   26.4369 H   0  0  0  0  0  0  0  0  0  0  0  0
  -14.6673   21.4102   25.5689 H   0  0  0  0  0  0  0  0  0  0  0  0
  -16.2495   21.1533   24.7454 H   0  0  0  0  0  0  0  0  0  0  0  0
  -17.1658   19.2526   26.5097 C   0  0  0  0  0  0  0  0  0  0  0  0
  -17.7123   19.2823   25.5609 H   0  0  0  0  0  0  0  0  0  0  0  0
  -17.6087   19.9621   27.2153 H   0  0  0  0  0  0  0  0  0  0  0  0
  -17.1535   17.8338   27.0982 C   0  0  0  0  0  0  0  0  0  0  0  0
  -18.1875   17.5082   27.2220 H   0  0  0  0  0  0  0  0  0  0  0  0
  -16.6857   17.8409   28.0905 H   0  0  0  0  0  0  0  0  0  0  0  0
  1  2  2  0
  2  3  1  0
  2 21  1  0
  3  4  1  0
  3  5  1  0
  3  6  1  0
  6  7  1  0
  7  8  1  0
  7 19  2  0
  8  9  1  0
  8 10  2  0
 10 11  1  0
 10 12  1  0
 12 13  1  0
 12 17  2  0
 13 14  1  0
 13 15  1  0
 13 16  1  0
 17 18  1  0
 17 19  1  0
 19 20  1  0
 21 22  1  0
 21 37  1  0
 22 23  1  0
 22 24  1  0
 22 25  1  0
 25 26  1  0
 25 27  1  0
 25 28  1  0
 28 29  1  0
 28 30  1  0
 28 34  1  0
 30 31  1  0
 30 32  1  0
 30 33  1  0
 34 35  1  0
 34 36  1  0
 34 37  1  0
 37 38  1  0
 37 39  1  0
M  END
$$$$
