F666_65
     RDKit          3D

 35 37  0  0  0  0  0  0  0  0999 V2000
  -14.3909   19.5909   25.4538 F   0  0  0  0  0  0  0  0  0  0  0  0
  -15.2780   18.5910   25.5555 C   0  0  0  0  0  0  0  0  0  0  0  0
  -14.8138   17.2818   25.5822 C   0  0  0  0  0  0  0  0  0  0  0  0
  -13.7750   17.0856   25.5233 H   0  0  0  0  0  0  0  0  0  0  0  0
  -15.7336   16.2426   25.6865 C   0  0  0  0  0  0  0  0  0  0  0  0
  -15.3845   15.2475   25.7072 H   0  0  0  0  0  0  0  0  0  0  0  0
  -17.1096   16.5262   25.7524 C   0  0  0  0  0  0  0  0  0  0  0  0
  -18.0334   15.4922   25.8388 N   0  0  0  0  0  0  0  0  0  0  0  0
  -19.0014   15.3836   26.9406 C   0  0  0  0  0  0  0  0  0  0  0  0
  -18.8580   16.1400   27.7187 H   0  0  0  0  0  0  0  0  0  0  0  0
  -20.0038   15.5517   26.5276 H   0  0  0  0  0  0  0  0  0  0  0  0
  -18.9432   13.9812   27.5671 C   0  0  0  0  0  0  0  0  0  0  0  0
  -19.7187   13.8864   28.3307 H   0  0  0  0  0  0  0  0  0  0  0  0
  -17.9762   13.8313   28.0612 H   0  0  0  0  0  0  0  0  0  0  0  0
  -19.0638   12.9379   26.5397 N   0  0  0  0  0  0  0  0  0  0  0  0
  -19.9884   11.9204   26.5575 C   0  0  0  0  0  0  0  0  0  0  0  0
  -19.9812   11.1066   25.6522 O   0  0  0  0  0  0  0  0  0  0  0  0
  -20.9607   11.8356   27.6704 C   0  0  0  0  0  0  0  0  0  0  0  0
  -20.5187   11.9656   28.6535 H   0  0  0  0  0  0  0  0  0  0  0  0
  -22.1061   10.8502   27.6025 C   0  0  0  0  0  0  0  0  0  0  0  0
  -22.2031   10.2349   26.7150 H   0  0  0  0  0  0  0  0  0  0  0  0
  -22.4017   10.3547   28.5192 H   0  0  0  0  0  0  0  0  0  0  0  0
  -22.3793   12.3176   27.4736 C   0  0  0  0  0  0  0  0  0  0  0  0
  -22.6709   12.6893   26.4973 H   0  0  0  0  0  0  0  0  0  0  0  0
  -22.8639   12.8186   28.3031 H   0  0  0  0  0  0  0  0  0  0  0  0
  -18.0872   13.0561   25.4496 C   0  0  0  0  0  0  0  0  0  0  0  0
  -17.0997   12.8757   25.8897 H   0  0  0  0  0  0  0  0  0  0  0  0
  -18.2477   12.2931   24.6814 H   0  0  0  0  0  0  0  0  0  0  0  0
  -18.1256   14.4515   24.8022 C   0  0  0  0  0  0  0  0  0  0  0  0
  -19.0648   14.5835   24.2524 H   0  0  0  0  0  0  0  0  0  0  0  0
  -17.3043   14.5061   24.0792 H   0  0  0  0  0  0  0  0  0  0  0  0
  -17.5491   17.8602   25.7451 C   0  0  0  0  0  0  0  0  0  0  0  0
  -18.5790   18.0810   25.8416 H   0  0  0  0  0  0  0  0  0  0  0  0
  -16.6289   18.8986   25.6378 C   0  0  0  0  0  0  0  0  0  0  0  0
  -16.9462   19.9081   25.6280 H   0  0  0  0  0  0  0  0  0  0  0  0
  1  2  1  0
  2  3  1  0
  2 34  2  0
  3  4  1  0
  3  5  2  0
  5  6  1  0
  5  7  1  0
  7  8  1  0
  7 32  2  0
  8  9  1  0
  8 29  1  0
  9 10  1  0
  9 11  1  0
  9 12  1  0
 12 13  1  0
 12 14  1  0
 12 15  1  0
 15 16  1  0
 15 26  1  0
 16 17  2  0
 16 18  1  0
 18 19  1  0
 18 20  1  0
 18 23  1  0
 20 21  1  0
 20 22  1  0
 20 23  1  0
 23 24  1  0
 23 25  1  0
 26 27  1  0
 26 28  1  0
 26 29  1  0
 29 30  1  0
 29 31  1  0
 32 33  1  0
 32 34  1  0
 34 35  1  0
M  END
$$$$
