F650_11
     RDKit          3D

 23 24  0  0  0  0  0  0  0  0999 V2000
  -19.4894   16.5662   25.7048 O   0  0  0  0  0  0  0  0  0  0  0  0
  -18.4730   15.9528   26.0152 C   0  0  0  0  0  0  0  0  0  0  0  0
  -17.3627   16.7081   26.3557 N   0  0  0  0  0  0  0  0  0  0  0  0
  -16.0152   16.2379   26.6581 C   0  0  0  0  0  0  0  0  0  0  0  0
  -16.0173   15.4943   27.4558 H   0  0  0  0  0  0  0  0  0  0  0  0
  -15.6006   15.7925   25.7477 H   0  0  0  0  0  0  0  0  0  0  0  0
  -15.2481   17.4862   27.0784 C   0  0  0  0  0  0  0  0  0  0  0  0
  -15.3452   17.6365   28.1608 H   0  0  0  0  0  0  0  0  0  0  0  0
  -14.1845   17.4277   26.8362 H   0  0  0  0  0  0  0  0  0  0  0  0
  -15.9688   18.6039   26.3405 C   0  0  0  0  0  0  0  0  0  0  0  0
  -15.6298   18.6382   25.2982 H   0  0  0  0  0  0  0  0  0  0  0  0
  -15.8068   19.5878   26.7889 H   0  0  0  0  0  0  0  0  0  0  0  0
  -17.4218   18.1626   26.4020 C   0  0  0  0  0  0  0  0  0  0  0  0
  -18.0182   18.5687   25.5802 H   0  0  0  0  0  0  0  0  0  0  0  0
  -17.8875   18.4467   27.3530 H   0  0  0  0  0  0  0  0  0  0  0  0
  -18.3974   14.5050   25.9715 C   0  0  0  0  0  0  0  0  0  0  0  0
  -18.7237   13.7609   24.8767 C   0  0  0  0  0  0  0  0  0  0  0  0
  -19.0513   14.0466   23.9106 H   0  0  0  0  0  0  0  0  0  0  0  0
  -18.5592   12.4782   25.2375 N   0  0  0  0  0  0  0  0  0  0  0  0
  -18.7293   11.6602   24.6212 H   0  0  0  0  0  0  0  0  0  0  0  0
  -18.1444   12.3578   26.5292 N   0  0  0  0  0  0  0  0  0  0  0  0
  -18.0593   13.5823   26.9648 C   0  0  0  0  0  0  0  0  0  0  0  0
  -17.7789   13.8235   27.9584 H   0  0  0  0  0  0  0  0  0  0  0  0
  1  2  2  0
  2  3  1  0
  2 16  1  0
  3  4  1  0
  3 13  1  0
  4  5  1  0
  4  6  1  0
  4  7  1  0
  7  8  1  0
  7  9  1  0
  7 10  1  0
 10 11  1  0
 10 12  1  0
 10 13  1  0
 13 14  1  0
 13 15  1  0
 16 17  2  0
 16 22  1  0
 17 18  1  0
 17 19  1  0
 19 20  1  0
 19 21  1  0
 21 22  2  0
 22 23  1  0
M  END
$$$$
