F95_87
     RDKit          3D

 27 27  0  0  0  0  0  0  0  0999 V2000
  -18.6045   13.1735   23.7423 S   0  0  0  0  0  0  0  0  0  0  0  0
  -19.0792   12.2829   22.7060 O   0  0  0  0  0  0  0  0  0  0  0  0
  -18.5726   14.6085   23.5631 O   0  0  0  0  0  0  0  0  0  0  0  0
  -17.0366   12.6890   24.1298 N   0  0  0  0  0  0  0  0  0  0  0  0
  -16.3916   12.8001   23.3439 H   0  0  0  0  0  0  0  0  0  0  0  0
  -17.0132   11.7584   24.5540 H   0  0  0  0  0  0  0  0  0  0  0  0
  -19.4631   12.8125   25.2323 C   0  0  0  0  0  0  0  0  0  0  0  0
  -20.0140   11.5459   25.4481 C   0  0  0  0  0  0  0  0  0  0  0  0
  -19.8838   10.7866   24.7160 H   0  0  0  0  0  0  0  0  0  0  0  0
  -20.7372   11.2747   26.6038 C   0  0  0  0  0  0  0  0  0  0  0  0
  -21.1524   10.3092   26.7495 H   0  0  0  0  0  0  0  0  0  0  0  0
  -20.9264   12.2674   27.5634 C   0  0  0  0  0  0  0  0  0  0  0  0
  -21.7683   11.9953   28.7794 C   0  0  0  0  0  0  0  0  0  0  0  0
  -21.2109   12.2173   29.6979 H   0  0  0  0  0  0  0  0  0  0  0  0
  -22.0556   10.9379   28.8281 H   0  0  0  0  0  0  0  0  0  0  0  0
  -22.9699   12.8013   28.7551 N   0  0  0  0  0  0  0  0  0  0  0  0
  -22.9323   13.7058   29.1927 H   0  0  0  0  0  0  0  0  0  0  0  0
  -24.0922   12.3866   28.1838 C   0  0  0  0  0  0  0  0  0  0  0  0
  -24.1795   11.2956   27.6403 O   0  0  0  0  0  0  0  0  0  0  0  0
  -25.2365   13.3577   28.2428 C   0  0  0  0  0  0  0  0  0  0  0  0
  -25.4003   13.6823   29.2744 H   0  0  0  0  0  0  0  0  0  0  0  0
  -25.0115   14.2280   27.6196 H   0  0  0  0  0  0  0  0  0  0  0  0
  -26.1472   12.8774   27.8749 H   0  0  0  0  0  0  0  0  0  0  0  0
  -20.3896   13.5347   27.3509 C   0  0  0  0  0  0  0  0  0  0  0  0
  -20.5400   14.3016   28.0689 H   0  0  0  0  0  0  0  0  0  0  0  0
  -19.6667   13.8057   26.1934 C   0  0  0  0  0  0  0  0  0  0  0  0
  -19.2717   14.7788   26.0337 H   0  0  0  0  0  0  0  0  0  0  0  0
  1  2  2  0
  1  3  2  0
  1  4  1  0
  1  7  1  0
  4  5  1  0
  4  6  1  0
  7  8  1  0
  7 26  2  0
  8  9  1  0
  8 10  2  0
 10 11  1  0
 10 12  1  0
 12 13  1  0
 12 24  2  0
 13 14  1  0
 13 15  1  0
 13 16  1  0
 16 17  1  0
 16 18  1  0
 18 19  2  0
 18 20  1  0
 20 21  1  0
 20 22  1  0
 20 23  1  0
 24 25  1  0
 24 26  1  0
 26 27  1  0
M  END
$$$$
