F763_90
     RDKit          3D

 19 19  0  0  0  0  0  0  0  0999 V2000
  -16.6069   17.2345   26.0829 Br  0  0  0  0  0  0  0  0  0  0  0  0
  -17.4757   15.5845   26.2258 C   0  0  0  0  0  0  0  0  0  0  0  0
  -18.2873   15.1316   25.2311 C   0  0  0  0  0  0  0  0  0  0  0  0
  -18.4521   15.6955   24.3526 H   0  0  0  0  0  0  0  0  0  0  0  0
  -18.9508   13.8725   25.3445 C   0  0  0  0  0  0  0  0  0  0  0  0
  -19.7160   13.4131   24.4869 O   0  0  0  0  0  0  0  0  0  0  0  0
  -18.7267   13.1195   26.5014 N   0  0  0  0  0  0  0  0  0  0  0  0
  -19.3798   11.8187   26.6586 C   0  0  0  0  0  0  0  0  0  0  0  0
  -19.3382   11.2742   25.7073 H   0  0  0  0  0  0  0  0  0  0  0  0
  -18.8202   11.2024   27.3743 H   0  0  0  0  0  0  0  0  0  0  0  0
  -20.8362   11.9532   27.0996 C   0  0  0  0  0  0  0  0  0  0  0  0
  -21.3780   12.6846   26.4910 H   0  0  0  0  0  0  0  0  0  0  0  0
  -20.8913   12.2845   28.1420 H   0  0  0  0  0  0  0  0  0  0  0  0
  -21.5011   10.6991   27.0020 O   0  0  0  0  0  0  0  0  0  0  0  0
  -21.4217   10.3996   26.0785 H   0  0  0  0  0  0  0  0  0  0  0  0
  -17.9017   13.5857   27.5191 C   0  0  0  0  0  0  0  0  0  0  0  0
  -17.7996   12.9482   28.3632 H   0  0  0  0  0  0  0  0  0  0  0  0
  -17.2819   14.7940   27.3934 C   0  0  0  0  0  0  0  0  0  0  0  0
  -16.6506   15.1575   28.1633 H   0  0  0  0  0  0  0  0  0  0  0  0
  1  2  1  0
  2  3  2  0
  2 18  1  0
  3  4  1  0
  3  5  1  0
  5  6  2  0
  5  7  1  0
  7  8  1  0
  7 16  1  0
  8  9  1  0
  8 10  1  0
  8 11  1  0
 11 12  1  0
 11 13  1  0
 11 14  1  0
 14 15  1  0
 16 17  1  0
 16 18  2  0
 18 19  1  0
M  END
$$$$
