F389_45
     RDKit          3D

 18 18  0  0  0  0  0  0  0  0999 V2000
  -22.0602   12.7278   29.2510 O   0  0  0  0  0  0  0  0  0  0  0  0
  -22.4551   13.0962   28.1542 C   0  0  0  0  0  0  0  0  0  0  0  0
  -21.6931   13.1197   27.0203 O   0  0  0  0  0  0  0  0  0  0  0  0
  -20.3291   12.6930   27.1611 C   0  0  0  0  0  0  0  0  0  0  0  0
  -20.3526   11.6423   27.4692 H   0  0  0  0  0  0  0  0  0  0  0  0
  -19.8181   13.2506   27.9539 H   0  0  0  0  0  0  0  0  0  0  0  0
  -19.6038   12.8205   25.8355 C   0  0  0  0  0  0  0  0  0  0  0  0
  -19.5675   13.8638   25.5064 H   0  0  0  0  0  0  0  0  0  0  0  0
  -20.1274   12.2595   25.0545 H   0  0  0  0  0  0  0  0  0  0  0  0
  -18.5805   12.4429   25.9152 H   0  0  0  0  0  0  0  0  0  0  0  0
  -23.8095   13.5656   27.9253 C   0  0  0  0  0  0  0  0  0  0  0  0
  -24.6061   14.2539   28.7924 C   0  0  0  0  0  0  0  0  0  0  0  0
  -24.4402   14.5931   29.7824 H   0  0  0  0  0  0  0  0  0  0  0  0
  -25.7615   14.4661   28.1412 N   0  0  0  0  0  0  0  0  0  0  0  0
  -26.5839   14.9680   28.5305 H   0  0  0  0  0  0  0  0  0  0  0  0
  -25.7445   13.9418   26.8854 N   0  0  0  0  0  0  0  0  0  0  0  0
  -24.5651   13.4006   26.7635 C   0  0  0  0  0  0  0  0  0  0  0  0
  -24.2383   12.9029   25.8851 H   0  0  0  0  0  0  0  0  0  0  0  0
  1  2  2  0
  2  3  1  0
  2 11  1  0
  3  4  1  0
  4  5  1  0
  4  6  1  0
  4  7  1  0
  7  8  1  0
  7  9  1  0
  7 10  1  0
 11 12  2  0
 11 17  1  0
 12 13  1  0
 12 14  1  0
 14 15  1  0
 14 16  1  0
 16 17  2  0
 17 18  1  0
M  END
$$$$
