F666_66
     RDKit          3D

 35 37  0  0  0  0  0  0  0  0999 V2000
  -14.3995   19.6018   25.4367 F   0  0  0  0  0  0  0  0  0  0  0  0
  -15.2883   18.6039   25.5433 C   0  0  0  0  0  0  0  0  0  0  0  0
  -14.8267   17.2938   25.5713 C   0  0  0  0  0  0  0  0  0  0  0  0
  -13.7884   17.0953   25.5096 H   0  0  0  0  0  0  0  0  0  0  0  0
  -15.7482   16.2566   25.6806 C   0  0  0  0  0  0  0  0  0  0  0  0
  -15.4011   15.2608   25.7023 H   0  0  0  0  0  0  0  0  0  0  0  0
  -17.1235   16.5432   25.7501 C   0  0  0  0  0  0  0  0  0  0  0  0
  -18.0491   15.5113   25.8415 N   0  0  0  0  0  0  0  0  0  0  0  0
  -19.0035   15.3983   26.9547 C   0  0  0  0  0  0  0  0  0  0  0  0
  -18.8482   16.1494   27.7356 H   0  0  0  0  0  0  0  0  0  0  0  0
  -20.0105   15.5720   26.5553 H   0  0  0  0  0  0  0  0  0  0  0  0
  -18.9416   13.9919   27.5715 C   0  0  0  0  0  0  0  0  0  0  0  0
  -19.7078   13.8944   28.3441 H   0  0  0  0  0  0  0  0  0  0  0  0
  -17.9690   13.8361   28.0525 H   0  0  0  0  0  0  0  0  0  0  0  0
  -19.0780   12.9555   26.5391 N   0  0  0  0  0  0  0  0  0  0  0  0
  -20.0053   11.9405   26.5620 C   0  0  0  0  0  0  0  0  0  0  0  0
  -20.0117   11.1325   25.6516 O   0  0  0  0  0  0  0  0  0  0  0  0
  -20.9638   11.8513   27.6864 C   0  0  0  0  0  0  0  0  0  0  0  0
  -20.5090   11.9726   28.6647 H   0  0  0  0  0  0  0  0  0  0  0  0
  -22.1138   10.8707   27.6259 C   0  0  0  0  0  0  0  0  0  0  0  0
  -22.2243   10.2622   26.7353 H   0  0  0  0  0  0  0  0  0  0  0  0
  -22.3998   10.3698   28.5427 H   0  0  0  0  0  0  0  0  0  0  0  0
  -22.3829   12.3401   27.5110 C   0  0  0  0  0  0  0  0  0  0  0  0
  -22.6854   12.7198   26.5411 H   0  0  0  0  0  0  0  0  0  0  0  0
  -22.8552   12.8369   28.3500 H   0  0  0  0  0  0  0  0  0  0  0  0
  -18.1147   13.0778   25.4376 C   0  0  0  0  0  0  0  0  0  0  0  0
  -17.1224   12.8919   25.8642 H   0  0  0  0  0  0  0  0  0  0  0  0
  -18.2870   12.3202   24.6666 H   0  0  0  0  0  0  0  0  0  0  0  0
  -18.1573   14.4775   24.7996 C   0  0  0  0  0  0  0  0  0  0  0  0
  -19.1029   14.6156   24.2624 H   0  0  0  0  0  0  0  0  0  0  0  0
  -17.3448   14.5344   24.0668 H   0  0  0  0  0  0  0  0  0  0  0  0
  -17.5602   17.8780   25.7414 C   0  0  0  0  0  0  0  0  0  0  0  0
  -18.5894   18.1011   25.8406 H   0  0  0  0  0  0  0  0  0  0  0  0
  -16.6383   18.9144   25.6290 C   0  0  0  0  0  0  0  0  0  0  0  0
  -16.9536   19.9245   25.6181 H   0  0  0  0  0  0  0  0  0  0  0  0
  1  2  1  0
  2  3  1  0
  2 34  2  0
  3  4  1  0
  3  5  2  0
  5  6  1  0
  5  7  1  0
  7  8  1  0
  7 32  2  0
  8  9  1  0
  8 29  1  0
  9 10  1  0
  9 11  1  0
  9 12  1  0
 12 13  1  0
 12 14  1  0
 12 15  1  0
 15 16  1  0
 15 26  1  0
 16 17  2  0
 16 18  1  0
 18 19  1  0
 18 20  1  0
 18 23  1  0
 20 21  1  0
 20 22  1  0
 20 23  1  0
 23 24  1  0
 23 25  1  0
 26 27  1  0
 26 28  1  0
 26 29  1  0
 29 30  1  0
 29 31  1  0
 32 33  1  0
 32 34  1  0
 34 35  1  0
M  END
$$$$
