F741_43
     RDKit          3D

 25 27  0  0  0  0  0  0  0  0999 V2000
  -19.8871   11.5901   26.2009 O   0  0  0  0  0  0  0  0  0  0  0  0
  -20.4598   12.3053   27.0209 C   0  0  0  0  0  0  0  0  0  0  0  0
  -19.8652   13.4731   27.3947 N   0  0  0  0  0  0  0  0  0  0  0  0
  -20.3954   14.0423   28.0749 H   0  0  0  0  0  0  0  0  0  0  0  0
  -18.6077   13.9362   26.9112 C   0  0  0  0  0  0  0  0  0  0  0  0
  -17.7772   13.3038   27.2162 H   0  0  0  0  0  0  0  0  0  0  0  0
  -18.3218   15.4098   26.8045 C   0  0  0  0  0  0  0  0  0  0  0  0
  -19.1044   16.1134   27.0612 H   0  0  0  0  0  0  0  0  0  0  0  0
  -17.3214   15.7475   27.0482 H   0  0  0  0  0  0  0  0  0  0  0  0
  -18.5007   14.5895   25.5611 C   0  0  0  0  0  0  0  0  0  0  0  0
  -17.6251   14.3667   24.9637 H   0  0  0  0  0  0  0  0  0  0  0  0
  -19.4088   14.7294   24.9858 H   0  0  0  0  0  0  0  0  0  0  0  0
  -21.7380   11.9978   27.6194 C   0  0  0  0  0  0  0  0  0  0  0  0
  -22.4916   12.8403   28.3977 C   0  0  0  0  0  0  0  0  0  0  0  0
  -23.6055   12.1029   28.7228 N   0  0  0  0  0  0  0  0  0  0  0  0
  -23.5888   10.8528   28.1887 N   0  0  0  0  0  0  0  0  0  0  0  0
  -22.4570   10.8069   27.5280 C   0  0  0  0  0  0  0  0  0  0  0  0
  -22.1362    9.9515   26.9869 H   0  0  0  0  0  0  0  0  0  0  0  0
  -24.6241   12.6346   29.5234 C   0  0  0  0  0  0  0  0  0  0  0  0
  -25.4414   11.9908   29.7202 H   0  0  0  0  0  0  0  0  0  0  0  0
  -24.4423   13.9197   29.9570 C   0  0  0  0  0  0  0  0  0  0  0  0
  -25.1668   14.3919   30.5677 H   0  0  0  0  0  0  0  0  0  0  0  0
  -23.2664   14.6568   29.5961 C   0  0  0  0  0  0  0  0  0  0  0  0
  -23.1478   15.6507   29.9444 H   0  0  0  0  0  0  0  0  0  0  0  0
  -22.3206   14.1560   28.8489 N   0  0  0  0  0  0  0  0  0  0  0  0
  1  2  2  0
  2  3  1  0
  2 13  1  0
  3  4  1  0
  3  5  1  0
  5  6  1  0
  5  7  1  0
  5 10  1  0
  7  8  1  0
  7  9  1  0
  7 10  1  0
 10 11  1  0
 10 12  1  0
 13 14  2  0
 13 17  1  0
 14 15  1  0
 14 25  1  0
 15 16  1  0
 15 19  1  0
 16 17  2  0
 17 18  1  0
 19 20  1  0
 19 21  2  0
 21 22  1  0
 21 23  1  0
 23 24  1  0
 23 25  2  0
M  END
$$$$
