F741_78
     RDKit          3D

 25 27  0  0  0  0  0  0  0  0999 V2000
  -19.6321   12.1318   29.0354 O   0  0  0  0  0  0  0  0  0  0  0  0
  -20.7269   12.4670   28.5872 C   0  0  0  0  0  0  0  0  0  0  0  0
  -20.7807   13.0142   27.3403 N   0  0  0  0  0  0  0  0  0  0  0  0
  -21.7260   13.2646   27.0068 H   0  0  0  0  0  0  0  0  0  0  0  0
  -19.6507   13.2421   26.5031 C   0  0  0  0  0  0  0  0  0  0  0  0
  -19.1109   14.1512   26.7577 H   0  0  0  0  0  0  0  0  0  0  0  0
  -19.6893   12.8737   25.0446 C   0  0  0  0  0  0  0  0  0  0  0  0
  -20.5762   12.3924   24.6509 H   0  0  0  0  0  0  0  0  0  0  0  0
  -19.1940   13.5363   24.3446 H   0  0  0  0  0  0  0  0  0  0  0  0
  -18.8316   12.0889   25.9930 C   0  0  0  0  0  0  0  0  0  0  0  0
  -17.7576   12.2202   25.9412 H   0  0  0  0  0  0  0  0  0  0  0  0
  -19.1457   11.0837   26.2497 H   0  0  0  0  0  0  0  0  0  0  0  0
  -21.9784   12.3138   29.2919 C   0  0  0  0  0  0  0  0  0  0  0  0
  -23.2161   12.6945   28.8371 C   0  0  0  0  0  0  0  0  0  0  0  0
  -24.0769   12.3438   29.8502 N   0  0  0  0  0  0  0  0  0  0  0  0
  -23.4461   11.7645   30.9060 N   0  0  0  0  0  0  0  0  0  0  0  0
  -22.1833   11.7550   30.5527 C   0  0  0  0  0  0  0  0  0  0  0  0
  -21.4124   11.3616   31.1679 H   0  0  0  0  0  0  0  0  0  0  0  0
  -25.4538   12.5798   29.7517 C   0  0  0  0  0  0  0  0  0  0  0  0
  -26.0358   12.2761   30.5826 H   0  0  0  0  0  0  0  0  0  0  0  0
  -25.8831   13.1751   28.5967 C   0  0  0  0  0  0  0  0  0  0  0  0
  -26.9093   13.3881   28.4472 H   0  0  0  0  0  0  0  0  0  0  0  0
  -24.9539   13.5258   27.5623 C   0  0  0  0  0  0  0  0  0  0  0  0
  -25.3102   13.9863   26.6768 H   0  0  0  0  0  0  0  0  0  0  0  0
  -23.6715   13.3026   27.6597 N   0  0  0  0  0  0  0  0  0  0  0  0
  1  2  2  0
  2  3  1  0
  2 13  1  0
  3  4  1  0
  3  5  1  0
  5  6  1  0
  5  7  1  0
  5 10  1  0
  7  8  1  0
  7  9  1  0
  7 10  1  0
 10 11  1  0
 10 12  1  0
 13 14  2  0
 13 17  1  0
 14 15  1  0
 14 25  1  0
 15 16  1  0
 15 19  1  0
 16 17  2  0
 17 18  1  0
 19 20  1  0
 19 21  2  0
 21 22  1  0
 21 23  1  0
 23 24  1  0
 23 25  2  0
M  END
$$$$
