F488_58
     RDKit          3D

 39 40  0  0  0  0  0  0  0  0999 V2000
  -20.7280   14.5539   27.7973 O   0  0  0  0  0  0  0  0  0  0  0  0
  -19.7598   14.1263   27.1765 C   0  0  0  0  0  0  0  0  0  0  0  0
  -19.4795   12.6257   27.1135 C   0  0  0  0  0  0  0  0  0  0  0  0
  -19.1020   12.4093   26.1070 H   0  0  0  0  0  0  0  0  0  0  0  0
  -18.6601   12.3658   27.7948 H   0  0  0  0  0  0  0  0  0  0  0  0
  -20.6053   11.7925   27.3342 O   0  0  0  0  0  0  0  0  0  0  0  0
  -21.7151   12.3256   27.9387 C   0  0  0  0  0  0  0  0  0  0  0  0
  -21.9894   12.2986   29.3055 C   0  0  0  0  0  0  0  0  0  0  0  0
  -21.3268   11.8340   29.9878 H   0  0  0  0  0  0  0  0  0  0  0  0
  -23.1565   12.8897   29.7789 C   0  0  0  0  0  0  0  0  0  0  0  0
  -23.3661   12.8766   30.8185 H   0  0  0  0  0  0  0  0  0  0  0  0
  -24.0513   13.4956   28.8963 C   0  0  0  0  0  0  0  0  0  0  0  0
  -25.2936   14.1609   29.4167 C   0  0  0  0  0  0  0  0  0  0  0  0
  -25.0871   15.2123   29.6398 H   0  0  0  0  0  0  0  0  0  0  0  0
  -26.1036   14.1062   28.6830 H   0  0  0  0  0  0  0  0  0  0  0  0
  -25.6477   13.6690   30.3284 H   0  0  0  0  0  0  0  0  0  0  0  0
  -23.7698   13.5063   27.5293 C   0  0  0  0  0  0  0  0  0  0  0  0
  -24.4465   13.9593   26.8521 H   0  0  0  0  0  0  0  0  0  0  0  0
  -22.6042   12.9182   27.0482 C   0  0  0  0  0  0  0  0  0  0  0  0
  -22.3925   12.9170   26.0102 H   0  0  0  0  0  0  0  0  0  0  0  0
  -18.9287   15.0095   26.5648 N   0  0  0  0  0  0  0  0  0  0  0  0
  -19.2820   16.4352   26.5047 C   0  0  0  0  0  0  0  0  0  0  0  0
  -19.5157   16.6572   25.4556 H   0  0  0  0  0  0  0  0  0  0  0  0
  -20.1826   16.6547   27.0858 H   0  0  0  0  0  0  0  0  0  0  0  0
  -18.1386   17.3316   26.9871 C   0  0  0  0  0  0  0  0  0  0  0  0
  -17.9144   17.1649   28.0459 H   0  0  0  0  0  0  0  0  0  0  0  0
  -18.3718   18.3864   26.8150 H   0  0  0  0  0  0  0  0  0  0  0  0
  -16.8749   17.0118   26.2035 N   0  0  0  0  0  0  0  0  0  0  0  0
  -17.0742   17.1875   25.2083 H   0  0  0  0  0  0  0  0  0  0  0  0
  -15.7390   17.9171   26.5819 C   0  0  0  0  0  0  0  0  0  0  0  0
  -14.8844   17.6718   25.9457 H   0  0  0  0  0  0  0  0  0  0  0  0
  -16.0543   18.9487   26.4022 H   0  0  0  0  0  0  0  0  0  0  0  0
  -15.5007   17.7583   27.6366 H   0  0  0  0  0  0  0  0  0  0  0  0
  -16.5030   15.5460   26.3458 C   0  0  0  0  0  0  0  0  0  0  0  0
  -16.2595   15.3763   27.4002 H   0  0  0  0  0  0  0  0  0  0  0  0
  -15.6177   15.3690   25.7275 H   0  0  0  0  0  0  0  0  0  0  0  0
  -17.6697   14.6539   25.8958 C   0  0  0  0  0  0  0  0  0  0  0  0
  -17.3936   13.6146   26.0801 H   0  0  0  0  0  0  0  0  0  0  0  0
  -17.8375   14.7676   24.8176 H   0  0  0  0  0  0  0  0  0  0  0  0
  1  2  2  0
  2  3  1  0
  2 21  1  0
  3  4  1  0
  3  5  1  0
  3  6  1  0
  6  7  1  0
  7  8  1  0
  7 19  2  0
  8  9  1  0
  8 10  2  0
 10 11  1  0
 10 12  1  0
 12 13  1  0
 12 17  2  0
 13 14  1  0
 13 15  1  0
 13 16  1  0
 17 18  1  0
 17 19  1  0
 19 20  1  0
 21 22  1  0
 21 37  1  0
 22 23  1  0
 22 24  1  0
 22 25  1  0
 25 26  1  0
 25 27  1  0
 25 28  1  0
 28 29  1  0
 28 30  1  0
 28 34  1  0
 30 31  1  0
 30 32  1  0
 30 33  1  0
 34 35  1  0
 34 36  1  0
 34 37  1  0
 37 38  1  0
 37 39  1  0
M  END
$$$$
