F5_10
     RDKit          3D

 21 21  0  0  0  0  0  0  0  0999 V2000
  -22.4878    9.9278   32.9821 Br  0  0  0  0  0  0  0  0  0  0  0  0
  -22.7898   10.8630   31.3650 C   0  0  0  0  0  0  0  0  0  0  0  0
  -22.9652   12.2424   31.3796 C   0  0  0  0  0  0  0  0  0  0  0  0
  -22.9345   12.7808   32.2884 H   0  0  0  0  0  0  0  0  0  0  0  0
  -23.1900   12.9178   30.1837 C   0  0  0  0  0  0  0  0  0  0  0  0
  -23.3775   14.2736   30.2553 O   0  0  0  0  0  0  0  0  0  0  0  0
  -24.7252   14.7376   30.5109 C   0  0  0  0  0  0  0  0  0  0  0  0
  -24.7483   15.8147   30.3538 H   0  0  0  0  0  0  0  0  0  0  0  0
  -24.9819   14.4880   31.5394 H   0  0  0  0  0  0  0  0  0  0  0  0
  -25.4084   14.2411   29.8225 H   0  0  0  0  0  0  0  0  0  0  0  0
  -23.2269   12.2397   28.9574 C   0  0  0  0  0  0  0  0  0  0  0  0
  -23.4318   12.9537   27.6210 C   0  0  0  0  0  0  0  0  0  0  0  0
  -22.7310   12.5589   26.9019 H   0  0  0  0  0  0  0  0  0  0  0  0
  -23.3462   14.0220   27.7293 H   0  0  0  0  0  0  0  0  0  0  0  0
  -24.8222   12.6495   27.1105 C   0  0  0  0  0  0  0  0  0  0  0  0
  -25.6660   12.2454   27.9425 O   0  0  0  0  0  0  0  0  0  0  0  0
  -25.0341   12.7692   25.8832 O   0  0  0  0  0  0  0  0  0  0  0  0
  -23.0565   10.8562   28.9636 C   0  0  0  0  0  0  0  0  0  0  0  0
  -23.1023   10.3226   28.0461 H   0  0  0  0  0  0  0  0  0  0  0  0
  -22.8397   10.1703   30.1562 C   0  0  0  0  0  0  0  0  0  0  0  0
  -22.7163    9.1190   30.1426 H   0  0  0  0  0  0  0  0  0  0  0  0
  1  2  1  0
  2  3  1  0
  2 20  2  0
  3  4  1  0
  3  5  2  0
  5  6  1  0
  5 11  1  0
  6  7  1  0
  7  8  1  0
  7  9  1  0
  7 10  1  0
 11 12  1  0
 11 18  2  0
 12 13  1  0
 12 14  1  0
 12 15  1  0
 15 16  1  0
 15 17  2  0
 18 19  1  0
 18 20  1  0
 20 21  1  0
M  END
$$$$
