F763_61
     RDKit          3D

 19 19  0  0  0  0  0  0  0  0999 V2000
  -15.9965   18.3891   27.3798 Br  0  0  0  0  0  0  0  0  0  0  0  0
  -16.9633   16.8782   26.8507 C   0  0  0  0  0  0  0  0  0  0  0  0
  -18.1527   16.5672   27.4356 C   0  0  0  0  0  0  0  0  0  0  0  0
  -18.5639   17.1656   28.2035 H   0  0  0  0  0  0  0  0  0  0  0  0
  -18.8871   15.4117   27.0307 C   0  0  0  0  0  0  0  0  0  0  0  0
  -19.9623   15.0627   27.5348 O   0  0  0  0  0  0  0  0  0  0  0  0
  -18.3503   14.6236   26.0078 N   0  0  0  0  0  0  0  0  0  0  0  0
  -19.0715   13.4330   25.5544 C   0  0  0  0  0  0  0  0  0  0  0  0
  -20.1409   13.6644   25.4758 H   0  0  0  0  0  0  0  0  0  0  0  0
  -18.7534   13.1665   24.5380 H   0  0  0  0  0  0  0  0  0  0  0  0
  -18.8799   12.2472   26.4982 C   0  0  0  0  0  0  0  0  0  0  0  0
  -19.3256   12.4351   27.4805 H   0  0  0  0  0  0  0  0  0  0  0  0
  -17.8139   12.0483   26.6511 H   0  0  0  0  0  0  0  0  0  0  0  0
  -19.4705   11.0756   25.9478 O   0  0  0  0  0  0  0  0  0  0  0  0
  -20.3995   11.2868   25.7449 H   0  0  0  0  0  0  0  0  0  0  0  0
  -17.1327   14.9393   25.4150 C   0  0  0  0  0  0  0  0  0  0  0  0
  -16.8013   14.2767   24.6531 H   0  0  0  0  0  0  0  0  0  0  0  0
  -16.4442   16.0446   25.8205 C   0  0  0  0  0  0  0  0  0  0  0  0
  -15.5158   16.2939   25.3742 H   0  0  0  0  0  0  0  0  0  0  0  0
  1  2  1  0
  2  3  2  0
  2 18  1  0
  3  4  1  0
  3  5  1  0
  5  6  2  0
  5  7  1  0
  7  8  1  0
  7 16  1  0
  8  9  1  0
  8 10  1  0
  8 11  1  0
 11 12  1  0
 11 13  1  0
 11 14  1  0
 14 15  1  0
 16 17  1  0
 16 18  2  0
 18 19  1  0
M  END
$$$$
