F362_37
     RDKit          3D

 30 31  0  0  0  0  0  0  0  0999 V2000
  -23.5336   11.6851   32.5106 N   0  0  0  0  0  0  0  0  0  0  0  0
  -23.8767   10.2501   32.4884 C   0  0  0  0  0  0  0  0  0  0  0  0
  -24.6832   10.0165   33.1889 H   0  0  0  0  0  0  0  0  0  0  0  0
  -24.2892    9.9827   31.5072 H   0  0  0  0  0  0  0  0  0  0  0  0
  -22.6448    9.3924   32.7359 C   0  0  0  0  0  0  0  0  0  0  0  0
  -22.1565    9.6347   33.6836 H   0  0  0  0  0  0  0  0  0  0  0  0
  -21.9037    9.5340   31.9416 H   0  0  0  0  0  0  0  0  0  0  0  0
  -22.9188    8.3324   32.7543 H   0  0  0  0  0  0  0  0  0  0  0  0
  -23.4198   12.2337   33.8769 C   0  0  0  0  0  0  0  0  0  0  0  0
  -24.2075   12.9690   34.0737 H   0  0  0  0  0  0  0  0  0  0  0  0
  -23.5781   11.4409   34.6193 H   0  0  0  0  0  0  0  0  0  0  0  0
  -22.0454   12.8489   34.1012 C   0  0  0  0  0  0  0  0  0  0  0  0
  -21.8559   13.6745   33.4088 H   0  0  0  0  0  0  0  0  0  0  0  0
  -21.2538   12.1069   33.9578 H   0  0  0  0  0  0  0  0  0  0  0  0
  -21.9674   13.2369   35.1215 H   0  0  0  0  0  0  0  0  0  0  0  0
  -23.3277   12.4850   31.3308 C   0  0  0  0  0  0  0  0  0  0  0  0
  -23.5529   13.9097   31.3234 N   0  0  0  0  0  0  0  0  0  0  0  0
  -23.9606   14.7300   32.3167 N   0  0  0  0  0  0  0  0  0  0  0  0
  -23.9803   15.8883   31.7326 C   0  0  0  0  0  0  0  0  0  0  0  0
  -24.2646   16.7736   32.2466 H   0  0  0  0  0  0  0  0  0  0  0  0
  -23.6216   15.9007   30.4445 N   0  0  0  0  0  0  0  0  0  0  0  0
  -23.3510   14.6537   30.1873 C   0  0  0  0  0  0  0  0  0  0  0  0
  -22.9282   14.1011   28.9903 N   0  0  0  0  0  0  0  0  0  0  0  0
  -22.7130   12.8267   28.9489 C   0  0  0  0  0  0  0  0  0  0  0  0
  -22.2524   12.2020   27.6606 C   0  0  0  0  0  0  0  0  0  0  0  0
  -22.1178   11.1228   27.7636 H   0  0  0  0  0  0  0  0  0  0  0  0
  -21.3009   12.6511   27.3619 H   0  0  0  0  0  0  0  0  0  0  0  0
  -22.9963   12.3931   26.8812 H   0  0  0  0  0  0  0  0  0  0  0  0
  -22.9026   11.9453   30.1309 C   0  0  0  0  0  0  0  0  0  0  0  0
  -22.7232   10.9105   30.0432 H   0  0  0  0  0  0  0  0  0  0  0  0
  1  2  1  0
  1  9  1  0
  1 16  1  0
  2  3  1  0
  2  4  1  0
  2  5  1  0
  5  6  1  0
  5  7  1  0
  5  8  1  0
  9 10  1  0
  9 11  1  0
  9 12  1  0
 12 13  1  0
 12 14  1  0
 12 15  1  0
 16 17  1  0
 16 29  2  0
 17 18  1  0
 17 22  1  0
 18 19  2  0
 19 20  1  0
 19 21  1  0
 21 22  2  0
 22 23  1  0
 23 24  2  0
 24 25  1  0
 24 29  1  0
 25 26  1  0
 25 27  1  0
 25 28  1  0
 29 30  1  0
M  END
$$$$
