F763_79
     RDKit          3D

 19 19  0  0  0  0  0  0  0  0999 V2000
  -16.4806   16.8812   26.0251 Br  0  0  0  0  0  0  0  0  0  0  0  0
  -17.4746   15.2988   26.1019 C   0  0  0  0  0  0  0  0  0  0  0  0
  -18.1963   14.8720   25.0293 C   0  0  0  0  0  0  0  0  0  0  0  0
  -18.2185   15.4191   24.1254 H   0  0  0  0  0  0  0  0  0  0  0  0
  -18.9557   13.6646   25.0921 C   0  0  0  0  0  0  0  0  0  0  0  0
  -19.6476   13.2324   24.1613 O   0  0  0  0  0  0  0  0  0  0  0  0
  -18.9200   12.9334   26.2837 N   0  0  0  0  0  0  0  0  0  0  0  0
  -19.6772   11.6852   26.3921 C   0  0  0  0  0  0  0  0  0  0  0  0
  -19.8495   11.2768   25.3887 H   0  0  0  0  0  0  0  0  0  0  0  0
  -19.0799   10.9290   26.9182 H   0  0  0  0  0  0  0  0  0  0  0  0
  -21.0196   11.8830   27.0938 C   0  0  0  0  0  0  0  0  0  0  0  0
  -21.6541   12.5983   26.5604 H   0  0  0  0  0  0  0  0  0  0  0  0
  -20.8682   12.2672   28.1081 H   0  0  0  0  0  0  0  0  0  0  0  0
  -21.7140   10.6451   27.1925 O   0  0  0  0  0  0  0  0  0  0  0  0
  -21.7865   10.2803   26.2922 H   0  0  0  0  0  0  0  0  0  0  0  0
  -18.1869   13.3733   27.3803 C   0  0  0  0  0  0  0  0  0  0  0  0
  -18.2279   12.7561   28.2444 H   0  0  0  0  0  0  0  0  0  0  0  0
  -17.4728   14.5326   27.3012 C   0  0  0  0  0  0  0  0  0  0  0  0
  -16.9102   14.8757   28.1315 H   0  0  0  0  0  0  0  0  0  0  0  0
  1  2  1  0
  2  3  2  0
  2 18  1  0
  3  4  1  0
  3  5  1  0
  5  6  2  0
  5  7  1  0
  7  8  1  0
  7 16  1  0
  8  9  1  0
  8 10  1  0
  8 11  1  0
 11 12  1  0
 11 13  1  0
 11 14  1  0
 14 15  1  0
 16 17  1  0
 16 18  2  0
 18 19  1  0
M  END
$$$$
