F205_23
     RDKit          3D

 20 20  0  0  0  0  0  0  0  0999 V2000
  -16.5866   14.9988   24.8261 O   0  0  0  0  0  0  0  0  0  0  0  0
  -17.5398   14.2150   25.0025 C   0  0  0  0  0  0  0  0  0  0  0  0
  -18.1969   14.2113   26.2480 N   0  0  0  0  0  0  0  0  0  0  0  0
  -17.7474   15.1230   27.2957 C   0  0  0  0  0  0  0  0  0  0  0  0
  -18.5750   15.7770   27.5863 H   0  0  0  0  0  0  0  0  0  0  0  0
  -16.9183   15.7564   26.9682 H   0  0  0  0  0  0  0  0  0  0  0  0
  -17.4067   14.5408   28.1579 H   0  0  0  0  0  0  0  0  0  0  0  0
  -19.2745   13.3303   26.4950 C   0  0  0  0  0  0  0  0  0  0  0  0
  -19.9406   13.3288   27.8428 C   0  0  0  0  0  0  0  0  0  0  0  0
  -19.2250   13.0661   28.6287 H   0  0  0  0  0  0  0  0  0  0  0  0
  -20.7562   12.5993   27.8924 H   0  0  0  0  0  0  0  0  0  0  0  0
  -20.3718   14.3092   28.0658 H   0  0  0  0  0  0  0  0  0  0  0  0
  -19.7073   12.4988   25.4996 C   0  0  0  0  0  0  0  0  0  0  0  0
  -20.5185   11.8405   25.6763 H   0  0  0  0  0  0  0  0  0  0  0  0
  -19.0898   12.4819   24.2199 C   0  0  0  0  0  0  0  0  0  0  0  0
  -19.4430   11.8217   23.4705 H   0  0  0  0  0  0  0  0  0  0  0  0
  -18.0333   13.3078   23.9744 C   0  0  0  0  0  0  0  0  0  0  0  0
  -17.3798   13.3398   22.7674 N   0  0  0  0  0  0  0  0  0  0  0  0
  -17.6586   12.7439   22.0014 H   0  0  0  0  0  0  0  0  0  0  0  0
  -16.6024   13.9891   22.6730 H   0  0  0  0  0  0  0  0  0  0  0  0
  1  2  2  0
  2  3  1  0
  2 17  1  0
  3  4  1  0
  3  8  1  0
  4  5  1  0
  4  6  1  0
  4  7  1  0
  8  9  1  0
  8 13  2  0
  9 10  1  0
  9 11  1  0
  9 12  1  0
 13 14  1  0
 13 15  1  0
 15 16  1  0
 15 17  2  0
 17 18  1  0
 18 19  1  0
 18 20  1  0
M  END
$$$$
