F95_35
     RDKit          3D

 27 27  0  0  0  0  0  0  0  0999 V2000
  -19.3863   11.8810   26.5351 S   0  0  0  0  0  0  0  0  0  0  0  0
  -19.4394   10.5605   25.9469 O   0  0  0  0  0  0  0  0  0  0  0  0
  -19.0304   13.0501   25.7612 O   0  0  0  0  0  0  0  0  0  0  0  0
  -18.3114   11.8011   27.8319 N   0  0  0  0  0  0  0  0  0  0  0  0
  -18.3990   12.6052   28.4577 H   0  0  0  0  0  0  0  0  0  0  0  0
  -17.3519   11.6177   27.5280 H   0  0  0  0  0  0  0  0  0  0  0  0
  -20.9075   12.1933   27.3573 C   0  0  0  0  0  0  0  0  0  0  0  0
  -21.9246   11.2342   27.3620 C   0  0  0  0  0  0  0  0  0  0  0  0
  -21.7619   10.2961   26.8900 H   0  0  0  0  0  0  0  0  0  0  0  0
  -23.1470   11.5000   27.9681 C   0  0  0  0  0  0  0  0  0  0  0  0
  -23.9097   10.7625   27.9586 H   0  0  0  0  0  0  0  0  0  0  0  0
  -23.3760   12.7324   28.5771 C   0  0  0  0  0  0  0  0  0  0  0  0
  -24.7219   13.0462   29.1702 C   0  0  0  0  0  0  0  0  0  0  0  0
  -24.6358   13.2599   30.2428 H   0  0  0  0  0  0  0  0  0  0  0  0
  -25.4032   12.1926   29.0685 H   0  0  0  0  0  0  0  0  0  0  0  0
  -25.3121   14.1913   28.5110 N   0  0  0  0  0  0  0  0  0  0  0  0
  -25.7768   14.0343   27.6333 H   0  0  0  0  0  0  0  0  0  0  0  0
  -25.2564   15.4129   29.0234 C   0  0  0  0  0  0  0  0  0  0  0  0
  -24.7026   15.6461   30.0875 O   0  0  0  0  0  0  0  0  0  0  0  0
  -25.9322   16.4790   28.2096 C   0  0  0  0  0  0  0  0  0  0  0  0
  -25.5668   16.4526   27.1789 H   0  0  0  0  0  0  0  0  0  0  0  0
  -27.0136   16.3150   28.2157 H   0  0  0  0  0  0  0  0  0  0  0  0
  -25.7149   17.4621   28.6360 H   0  0  0  0  0  0  0  0  0  0  0  0
  -22.3714   13.6968   28.5675 C   0  0  0  0  0  0  0  0  0  0  0  0
  -22.5408   14.6435   29.0162 H   0  0  0  0  0  0  0  0  0  0  0  0
  -21.1486   13.4304   27.9598 C   0  0  0  0  0  0  0  0  0  0  0  0
  -20.3925   14.1765   27.9461 H   0  0  0  0  0  0  0  0  0  0  0  0
  1  2  2  0
  1  3  2  0
  1  4  1  0
  1  7  1  0
  4  5  1  0
  4  6  1  0
  7  8  1  0
  7 26  2  0
  8  9  1  0
  8 10  2  0
 10 11  1  0
 10 12  1  0
 12 13  1  0
 12 24  2  0
 13 14  1  0
 13 15  1  0
 13 16  1  0
 16 17  1  0
 16 18  1  0
 18 19  2  0
 18 20  1  0
 20 21  1  0
 20 22  1  0
 20 23  1  0
 24 25  1  0
 24 26  1  0
 26 27  1  0
M  END
$$$$
