F584_11
     RDKit          3D

 27 28  0  0  0  0  0  0  0  0999 V2000
  -22.2499   11.1414   31.2596 O   0  0  0  0  0  0  0  0  0  0  0  0
  -22.7228   10.0652   32.0585 C   0  0  0  0  0  0  0  0  0  0  0  0
  -22.0803    9.1998   31.8674 H   0  0  0  0  0  0  0  0  0  0  0  0
  -23.7453    9.7865   31.7810 H   0  0  0  0  0  0  0  0  0  0  0  0
  -22.6507   10.3025   33.1249 H   0  0  0  0  0  0  0  0  0  0  0  0
  -22.9199   12.3455   31.3158 C   0  0  0  0  0  0  0  0  0  0  0  0
  -23.5062   12.7762   30.1171 C   0  0  0  0  0  0  0  0  0  0  0  0
  -24.1741   14.0100   30.1237 C   0  0  0  0  0  0  0  0  0  0  0  0
  -24.7920   14.6489   29.0223 N   0  0  0  0  0  0  0  0  0  0  0  0
  -25.3204   15.5002   29.2483 H   0  0  0  0  0  0  0  0  0  0  0  0
  -24.8380   14.3943   27.6880 C   0  0  0  0  0  0  0  0  0  0  0  0
  -25.4630   15.2246   27.0701 O   0  0  0  0  0  0  0  0  0  0  0  0
  -24.1168   13.2612   27.0452 C   0  0  0  0  0  0  0  0  0  0  0  0
  -24.5127   13.1608   26.0272 H   0  0  0  0  0  0  0  0  0  0  0  0
  -23.0531   13.5101   26.9614 H   0  0  0  0  0  0  0  0  0  0  0  0
  -24.3593   11.9755   27.7926 C   0  0  0  0  0  0  0  0  0  0  0  0
  -25.3933   11.9032   28.1529 H   0  0  0  0  0  0  0  0  0  0  0  0
  -24.2011   11.1371   27.1041 H   0  0  0  0  0  0  0  0  0  0  0  0
  -23.3772   11.8335   28.9396 C   0  0  0  0  0  0  0  0  0  0  0  0
  -22.3500   11.9030   28.5579 H   0  0  0  0  0  0  0  0  0  0  0  0
  -23.5136   10.8048   29.2983 H   0  0  0  0  0  0  0  0  0  0  0  0
  -24.2516   14.7806   31.2863 C   0  0  0  0  0  0  0  0  0  0  0  0
  -24.7600   15.7101   31.2738 H   0  0  0  0  0  0  0  0  0  0  0  0
  -23.6668   14.3308   32.4625 C   0  0  0  0  0  0  0  0  0  0  0  0
  -23.7294   14.9158   33.3439 H   0  0  0  0  0  0  0  0  0  0  0  0
  -22.9999   13.1111   32.4830 C   0  0  0  0  0  0  0  0  0  0  0  0
  -22.5575   12.7752   33.3828 H   0  0  0  0  0  0  0  0  0  0  0  0
  1  2  1  0
  1  6  1  0
  2  3  1  0
  2  4  1  0
  2  5  1  0
  6  7  1  0
  6 26  2  0
  7  8  2  0
  7 19  1  0
  8  9  1  0
  8 22  1  0
  9 10  1  0
  9 11  1  0
 11 12  2  0
 11 13  1  0
 13 14  1  0
 13 15  1  0
 13 16  1  0
 16 17  1  0
 16 18  1  0
 16 19  1  0
 19 20  1  0
 19 21  1  0
 22 23  1  0
 22 24  2  0
 24 25  1  0
 24 26  1  0
 26 27  1  0
M  END
$$$$
