F529_54
     RDKit          3D

 23 23  0  0  0  0  0  0  0  0999 V2000
  -20.5524   13.3214   27.2636 S   0  0  0  0  0  0  0  0  0  0  0  0
  -20.7952   14.5651   27.9768 O   0  0  0  0  0  0  0  0  0  0  0  0
  -21.6584   12.5243   26.7682 O   0  0  0  0  0  0  0  0  0  0  0  0
  -19.5503   12.2932   28.3050 C   0  0  0  0  0  0  0  0  0  0  0  0
  -18.6554   12.8465   28.5972 H   0  0  0  0  0  0  0  0  0  0  0  0
  -19.2843   11.3832   27.7638 H   0  0  0  0  0  0  0  0  0  0  0  0
  -20.1338   12.0379   29.1915 H   0  0  0  0  0  0  0  0  0  0  0  0
  -19.4873   13.6696   25.8924 C   0  0  0  0  0  0  0  0  0  0  0  0
  -18.6124   14.7696   25.8672 C   0  0  0  0  0  0  0  0  0  0  0  0
  -18.5758   15.6454   26.9492 N   0  0  0  0  0  0  0  0  0  0  0  0
  -19.2844   15.5080   27.6844 H   0  0  0  0  0  0  0  0  0  0  0  0
  -17.6528   16.7427   27.1104 C   0  0  0  0  0  0  0  0  0  0  0  0
  -16.6154   16.3918   27.0988 H   0  0  0  0  0  0  0  0  0  0  0  0
  -17.8287   17.2289   28.0752 H   0  0  0  0  0  0  0  0  0  0  0  0
  -17.7932   17.4957   26.3289 H   0  0  0  0  0  0  0  0  0  0  0  0
  -17.7619   14.9671   24.7713 C   0  0  0  0  0  0  0  0  0  0  0  0
  -17.0803   15.7755   24.7575 H   0  0  0  0  0  0  0  0  0  0  0  0
  -17.8077   14.0979   23.6895 C   0  0  0  0  0  0  0  0  0  0  0  0
  -17.1699   14.2532   22.8573 H   0  0  0  0  0  0  0  0  0  0  0  0
  -18.6919   13.0241   23.6930 C   0  0  0  0  0  0  0  0  0  0  0  0
  -18.7307   12.3657   22.8618 H   0  0  0  0  0  0  0  0  0  0  0  0
  -19.5222   12.8124   24.7896 C   0  0  0  0  0  0  0  0  0  0  0  0
  -20.1903   11.9887   24.7880 H   0  0  0  0  0  0  0  0  0  0  0  0
  1  2  2  0
  1  3  2  0
  1  4  1  0
  1  8  1  0
  4  5  1  0
  4  6  1  0
  4  7  1  0
  8  9  1  0
  8 22  2  0
  9 10  1  0
  9 16  2  0
 10 11  1  0
 10 12  1  0
 12 13  1  0
 12 14  1  0
 12 15  1  0
 16 17  1  0
 16 18  1  0
 18 19  1  0
 18 20  2  0
 20 21  1  0
 20 22  1  0
 22 23  1  0
M  END
$$$$
