
     RDKit          3D

 23 24  0  0  0  0  0  0  0  0999 V2000
  -22.5246   11.5631   28.3350 O   0  0  0  0  0  0  0  0  0  0  0  0
  -23.3868   12.2293   28.8993 C   0  0  0  0  0  0  0  0  0  0  0  0
  -23.6199   11.9519   30.2365 N   0  0  0  0  0  0  0  0  0  0  0  0
  -24.6482   12.5156   31.1044 C   0  0  0  0  0  0  0  0  0  0  0  0
  -24.6109   13.6055   31.1183 H   0  0  0  0  0  0  0  0  0  0  0  0
  -25.6237   12.1906   30.7278 H   0  0  0  0  0  0  0  0  0  0  0  0
  -24.3544   11.9425   32.4860 C   0  0  0  0  0  0  0  0  0  0  0  0
  -23.6616   12.6019   33.0234 H   0  0  0  0  0  0  0  0  0  0  0  0
  -25.2550   11.8262   33.0933 H   0  0  0  0  0  0  0  0  0  0  0  0
  -23.6668   10.6216   32.1769 C   0  0  0  0  0  0  0  0  0  0  0  0
  -24.4178    9.8634   31.9242 H   0  0  0  0  0  0  0  0  0  0  0  0
  -23.0643   10.2469   33.0088 H   0  0  0  0  0  0  0  0  0  0  0  0
  -22.8323   10.9575   30.9520 C   0  0  0  0  0  0  0  0  0  0  0  0
  -22.6283   10.0809   30.3306 H   0  0  0  0  0  0  0  0  0  0  0  0
  -21.8804   11.4245   31.2306 H   0  0  0  0  0  0  0  0  0  0  0  0
  -24.1815   13.2210   28.2004 C   0  0  0  0  0  0  0  0  0  0  0  0
  -24.3077   14.5162   28.6071 C   0  0  0  0  0  0  0  0  0  0  0  0
  -23.8821   15.0354   29.4266 H   0  0  0  0  0  0  0  0  0  0  0  0
  -25.1417   15.1002   27.7319 N   0  0  0  0  0  0  0  0  0  0  0  0
  -25.4423   16.0933   27.7684 H   0  0  0  0  0  0  0  0  0  0  0  0
  -25.5696   14.2324   26.7735 N   0  0  0  0  0  0  0  0  0  0  0  0
  -24.9938   13.1022   27.0697 C   0  0  0  0  0  0  0  0  0  0  0  0
  -25.1484   12.2124   26.5144 H   0  0  0  0  0  0  0  0  0  0  0  0
  1  2  2  0
  2  3  1  0
  2 16  1  0
  3  4  1  0
  3 13  1  0
  4  5  1  0
  4  6  1  0
  4  7  1  0
  7  8  1  0
  7  9  1  0
  7 10  1  0
 10 11  1  0
 10 12  1  0
 10 13  1  0
 13 14  1  0
 13 15  1  0
 16 17  2  0
 16 22  1  0
 17 18  1  0
 17 19  1  0
 19 20  1  0
 19 21  1  0
 21 22  2  0
 22 23  1  0
M  END
$$$$
