
     RDKit          3D

 26 26  0  0  0  0  0  0  0  0999 V2000
  -15.4231   17.6314   26.9997 S   0  0  0  0  0  0  0  0  0  0  0  0
  -14.2539   17.5819   26.1493 O   0  0  0  0  0  0  0  0  0  0  0  0
  -15.4555   16.9692   28.2864 O   0  0  0  0  0  0  0  0  0  0  0  0
  -16.7567   17.0748   26.1341 N   0  0  0  0  0  0  0  0  0  0  0  0
  -16.8319   17.4394   25.1811 H   0  0  0  0  0  0  0  0  0  0  0  0
  -17.2541   15.7045   26.3611 C   0  0  0  0  0  0  0  0  0  0  0  0
  -16.5591   15.0098   25.8766 H   0  0  0  0  0  0  0  0  0  0  0  0
  -17.2845   15.4702   27.4308 H   0  0  0  0  0  0  0  0  0  0  0  0
  -18.6426   15.5338   25.7401 C   0  0  0  0  0  0  0  0  0  0  0  0
  -19.3546   16.2382   26.1895 H   0  0  0  0  0  0  0  0  0  0  0  0
  -18.5934   15.7967   24.6758 H   0  0  0  0  0  0  0  0  0  0  0  0
  -19.1778   14.1240   25.8647 C   0  0  0  0  0  0  0  0  0  0  0  0
  -19.2031   13.2823   24.7464 C   0  0  0  0  0  0  0  0  0  0  0  0
  -18.8611   13.6327   23.8075 H   0  0  0  0  0  0  0  0  0  0  0  0
  -19.6792   11.9784   24.8608 C   0  0  0  0  0  0  0  0  0  0  0  0
  -19.7037   11.3323   24.0218 H   0  0  0  0  0  0  0  0  0  0  0  0
  -20.1221   11.5340   26.0983 C   0  0  0  0  0  0  0  0  0  0  0  0
  -20.5806   10.2790   26.2101 F   0  0  0  0  0  0  0  0  0  0  0  0
  -20.1031   12.3453   27.2236 C   0  0  0  0  0  0  0  0  0  0  0  0
  -20.4416   11.9745   28.1553 H   0  0  0  0  0  0  0  0  0  0  0  0
  -19.6274   13.6486   27.1008 C   0  0  0  0  0  0  0  0  0  0  0  0
  -19.5994   14.2774   27.9547 H   0  0  0  0  0  0  0  0  0  0  0  0
  -15.8521   19.3390   27.2604 C   0  0  0  0  0  0  0  0  0  0  0  0
  -15.9007   19.8500   26.2973 H   0  0  0  0  0  0  0  0  0  0  0  0
  -15.0713   19.7909   27.8763 H   0  0  0  0  0  0  0  0  0  0  0  0
  -16.8093   19.3885   27.7820 H   0  0  0  0  0  0  0  0  0  0  0  0
  1  2  2  0
  1  3  2  0
  1  4  1  0
  1 23  1  0
  4  5  1  0
  4  6  1  0
  6  7  1  0
  6  8  1  0
  6  9  1  0
  9 10  1  0
  9 11  1  0
  9 12  1  0
 12 13  1  0
 12 21  2  0
 13 14  1  0
 13 15  2  0
 15 16  1  0
 15 17  1  0
 17 18  1  0
 17 19  2  0
 19 20  1  0
 19 21  1  0
 21 22  1  0
 23 24  1  0
 23 25  1  0
 23 26  1  0
M  END
$$$$
