
     RDKit          3D

 29 30  0  0  0  0  0  0  0  0999 V2000
  -15.7532   15.6887   27.8323 O   0  0  0  0  0  0  0  0  0  0  0  0
  -15.7894   16.2636   26.7606 C   0  0  0  0  0  0  0  0  0  0  0  0
  -16.7115   15.9226   25.8089 N   0  0  0  0  0  0  0  0  0  0  0  0
  -16.6550   16.4560   24.9336 H   0  0  0  0  0  0  0  0  0  0  0  0
  -17.6980   14.9483   25.8885 C   0  0  0  0  0  0  0  0  0  0  0  0
  -17.9702   14.1348   26.9298 C   0  0  0  0  0  0  0  0  0  0  0  0
  -17.5315   14.0408   27.8868 H   0  0  0  0  0  0  0  0  0  0  0  0
  -19.0113   13.3723   26.5124 N   0  0  0  0  0  0  0  0  0  0  0  0
  -19.6921   12.3280   27.2467 C   0  0  0  0  0  0  0  0  0  0  0  0
  -19.6923   11.4284   26.6206 H   0  0  0  0  0  0  0  0  0  0  0  0
  -19.1023   12.1115   28.1440 H   0  0  0  0  0  0  0  0  0  0  0  0
  -21.1080   12.7224   27.6260 C   0  0  0  0  0  0  0  0  0  0  0  0
  -21.5907   11.9152   28.1852 H   0  0  0  0  0  0  0  0  0  0  0  0
  -21.1117   13.6217   28.2503 H   0  0  0  0  0  0  0  0  0  0  0  0
  -21.7119   12.9305   26.7366 H   0  0  0  0  0  0  0  0  0  0  0  0
  -19.4036   13.6861   25.2421 N   0  0  0  0  0  0  0  0  0  0  0  0
  -18.5966   14.6459   24.8707 C   0  0  0  0  0  0  0  0  0  0  0  0
  -18.6415   15.1120   23.9207 H   0  0  0  0  0  0  0  0  0  0  0  0
  -14.8297   17.4143   26.3349 C   0  0  0  0  0  0  0  0  0  0  0  0
  -14.0038   17.0568   25.7010 H   0  0  0  0  0  0  0  0  0  0  0  0
  -15.4774   18.6873   25.7236 C   0  0  0  0  0  0  0  0  0  0  0  0
  -16.5000   18.8841   26.0634 H   0  0  0  0  0  0  0  0  0  0  0  0
  -15.4476   18.7548   24.6323 H   0  0  0  0  0  0  0  0  0  0  0  0
  -14.4084   19.5113   26.4654 C   0  0  0  0  0  0  0  0  0  0  0  0
  -14.7462   20.4623   26.8843 H   0  0  0  0  0  0  0  0  0  0  0  0
  -13.4979   19.6804   25.8792 H   0  0  0  0  0  0  0  0  0  0  0  0
  -14.2943   18.3416   27.4612 C   0  0  0  0  0  0  0  0  0  0  0  0
  -14.9604   18.4339   28.3273 H   0  0  0  0  0  0  0  0  0  0  0  0
  -13.2833   18.1224   27.8138 H   0  0  0  0  0  0  0  0  0  0  0  0
  1  2  2  0
  2  3  1  0
  2 19  1  0
  3  4  1  0
  3  5  1  0
  5  6  2  0
  5 17  1  0
  6  7  1  0
  6  8  1  0
  8  9  1  0
  8 16  1  0
  9 10  1  0
  9 11  1  0
  9 12  1  0
 12 13  1  0
 12 14  1  0
 12 15  1  0
 16 17  2  0
 17 18  1  0
 19 20  1  0
 19 21  1  0
 19 27  1  0
 21 22  1  0
 21 23  1  0
 21 24  1  0
 24 25  1  0
 24 26  1  0
 24 27  1  0
 27 28  1  0
 27 29  1  0
M  END
$$$$
