
     RDKit          3D

 21 21  0  0  0  0  0  0  0  0999 V2000
  -22.4391   12.2017   33.8977 Br  0  0  0  0  0  0  0  0  0  0  0  0
  -23.2524   12.3454   32.1951 C   0  0  0  0  0  0  0  0  0  0  0  0
  -22.6396   11.7839   31.0801 C   0  0  0  0  0  0  0  0  0  0  0  0
  -21.7174   11.2759   31.1696 H   0  0  0  0  0  0  0  0  0  0  0  0
  -23.2464   11.8997   29.8330 C   0  0  0  0  0  0  0  0  0  0  0  0
  -22.5911   11.3473   28.7635 O   0  0  0  0  0  0  0  0  0  0  0  0
  -21.6681   12.2019   28.0460 C   0  0  0  0  0  0  0  0  0  0  0  0
  -21.3757   11.6913   27.1300 H   0  0  0  0  0  0  0  0  0  0  0  0
  -20.8045   12.3822   28.6845 H   0  0  0  0  0  0  0  0  0  0  0  0
  -22.1645   13.1430   27.8116 H   0  0  0  0  0  0  0  0  0  0  0  0
  -24.4746   12.5569   29.6763 C   0  0  0  0  0  0  0  0  0  0  0  0
  -25.1892   12.6687   28.3292 C   0  0  0  0  0  0  0  0  0  0  0  0
  -26.2417   12.4807   28.4743 H   0  0  0  0  0  0  0  0  0  0  0  0
  -24.7544   12.0079   27.5979 H   0  0  0  0  0  0  0  0  0  0  0  0
  -25.0498   14.0841   27.8159 C   0  0  0  0  0  0  0  0  0  0  0  0
  -24.3079   14.8601   28.4598 O   0  0  0  0  0  0  0  0  0  0  0  0
  -25.7210   14.4112   26.8119 O   0  0  0  0  0  0  0  0  0  0  0  0
  -25.0699   13.1198   30.8041 C   0  0  0  0  0  0  0  0  0  0  0  0
  -25.9904   13.6400   30.7012 H   0  0  0  0  0  0  0  0  0  0  0  0
  -24.4661   13.0168   32.0549 C   0  0  0  0  0  0  0  0  0  0  0  0
  -24.9303   13.4538   32.9000 H   0  0  0  0  0  0  0  0  0  0  0  0
  1  2  1  0
  2  3  1  0
  2 20  2  0
  3  4  1  0
  3  5  2  0
  5  6  1  0
  5 11  1  0
  6  7  1  0
  7  8  1  0
  7  9  1  0
  7 10  1  0
 11 12  1  0
 11 18  2  0
 12 13  1  0
 12 14  1  0
 12 15  1  0
 15 16  1  0
 15 17  2  0
 18 19  1  0
 18 20  1  0
 20 21  1  0
M  END
$$$$
