
     RDKit          3D

 19 19  0  0  0  0  0  0  0  0999 V2000
  -18.1548   12.7635   26.0941 Br  0  0  0  0  0  0  0  0  0  0  0  0
  -19.8664   12.5542   26.8182 C   0  0  0  0  0  0  0  0  0  0  0  0
  -20.5426   11.3796   26.6896 C   0  0  0  0  0  0  0  0  0  0  0  0
  -20.1246   10.5545   26.1784 H   0  0  0  0  0  0  0  0  0  0  0  0
  -21.8501   11.2240   27.2418 C   0  0  0  0  0  0  0  0  0  0  0  0
  -22.5252   10.1913   27.1429 O   0  0  0  0  0  0  0  0  0  0  0  0
  -22.4016   12.3108   27.9276 N   0  0  0  0  0  0  0  0  0  0  0  0
  -23.7367   12.1952   28.5170 C   0  0  0  0  0  0  0  0  0  0  0  0
  -23.9044   11.1591   28.8356 H   0  0  0  0  0  0  0  0  0  0  0  0
  -23.7953   12.7972   29.4332 H   0  0  0  0  0  0  0  0  0  0  0  0
  -24.8368   12.6071   27.5404 C   0  0  0  0  0  0  0  0  0  0  0  0
  -24.8329   13.6865   27.3574 H   0  0  0  0  0  0  0  0  0  0  0  0
  -25.8216   12.3428   27.9399 H   0  0  0  0  0  0  0  0  0  0  0  0
  -24.6727   11.9348   26.2972 O   0  0  0  0  0  0  0  0  0  0  0  0
  -25.0128   11.0291   26.4098 H   0  0  0  0  0  0  0  0  0  0  0  0
  -21.7120   13.5118   28.0534 C   0  0  0  0  0  0  0  0  0  0  0  0
  -22.2155   14.2832   28.5832 H   0  0  0  0  0  0  0  0  0  0  0  0
  -20.4663   13.6414   27.5135 C   0  0  0  0  0  0  0  0  0  0  0  0
  -19.9325   14.5525   27.6049 H   0  0  0  0  0  0  0  0  0  0  0  0
  1  2  1  0
  2  3  2  0
  2 18  1  0
  3  4  1  0
  3  5  1  0
  5  6  2  0
  5  7  1  0
  7  8  1  0
  7 16  1  0
  8  9  1  0
  8 10  1  0
  8 11  1  0
 11 12  1  0
 11 13  1  0
 11 14  1  0
 14 15  1  0
 16 17  1  0
 16 18  2  0
 18 19  1  0
M  END
$$$$
