
     RDKit          3D

 25 26  0  0  0  0  0  0  0  0999 V2000
  -19.7030   12.2632   25.6722 O   0  0  0  0  0  0  0  0  0  0  0  0
  -20.1826   12.8658   26.6302 C   0  0  0  0  0  0  0  0  0  0  0  0
  -19.6074   14.0454   27.0361 N   0  0  0  0  0  0  0  0  0  0  0  0
  -20.0755   14.4788   27.8443 H   0  0  0  0  0  0  0  0  0  0  0  0
  -18.5065   14.6807   26.4902 C   0  0  0  0  0  0  0  0  0  0  0  0
  -18.0280   15.8374   26.9918 C   0  0  0  0  0  0  0  0  0  0  0  0
  -18.3396   16.4401   27.8027 H   0  0  0  0  0  0  0  0  0  0  0  0
  -16.9650   16.1422   26.2069 N   0  0  0  0  0  0  0  0  0  0  0  0
  -16.0901   17.2817   26.3058 C   0  0  0  0  0  0  0  0  0  0  0  0
  -16.4162   17.9212   27.1295 H   0  0  0  0  0  0  0  0  0  0  0  0
  -16.1345   17.8343   25.3640 H   0  0  0  0  0  0  0  0  0  0  0  0
  -15.0751   16.9220   26.4922 H   0  0  0  0  0  0  0  0  0  0  0  0
  -16.7608   15.2175   25.2311 N   0  0  0  0  0  0  0  0  0  0  0  0
  -17.7036   14.3256   25.4069 C   0  0  0  0  0  0  0  0  0  0  0  0
  -17.8189   13.4655   24.7995 H   0  0  0  0  0  0  0  0  0  0  0  0
  -21.3359   12.4281   27.3904 C   0  0  0  0  0  0  0  0  0  0  0  0
  -21.8285   11.2194   27.2822 N   0  0  0  0  0  0  0  0  0  0  0  0
  -22.8712   11.1447   28.1043 O   0  0  0  0  0  0  0  0  0  0  0  0
  -23.0506   12.3060   28.7417 C   0  0  0  0  0  0  0  0  0  0  0  0
  -24.1714   12.3844   29.6917 C   0  0  0  0  0  0  0  0  0  0  0  0
  -24.2313   13.3769   30.1486 H   0  0  0  0  0  0  0  0  0  0  0  0
  -24.0476   11.6482   30.4917 H   0  0  0  0  0  0  0  0  0  0  0  0
  -25.1200   12.1855   29.1847 H   0  0  0  0  0  0  0  0  0  0  0  0
  -22.0980   13.1449   28.3150 C   0  0  0  0  0  0  0  0  0  0  0  0
  -21.9491   14.1490   28.6169 H   0  0  0  0  0  0  0  0  0  0  0  0
  1  2  2  0
  2  3  1  0
  2 16  1  0
  3  4  1  0
  3  5  1  0
  5  6  2  0
  5 14  1  0
  6  7  1  0
  6  8  1  0
  8  9  1  0
  8 13  1  0
  9 10  1  0
  9 11  1  0
  9 12  1  0
 13 14  2  0
 14 15  1  0
 16 17  2  0
 16 24  1  0
 17 18  1  0
 18 19  1  0
 19 20  1  0
 19 24  2  0
 20 21  1  0
 20 22  1  0
 20 23  1  0
 24 25  1  0
M  END
$$$$
