
     RDKit          3D

 29 30  0  0  0  0  0  0  0  0999 V2000
  -21.0585   14.2166   28.1009 O   0  0  0  0  0  0  0  0  0  0  0  0
  -20.9884   13.1828   27.4632 C   0  0  0  0  0  0  0  0  0  0  0  0
  -22.0980   12.4120   27.2464 N   0  0  0  0  0  0  0  0  0  0  0  0
  -21.9360   11.5531   26.7081 H   0  0  0  0  0  0  0  0  0  0  0  0
  -23.3989   12.6530   27.6690 C   0  0  0  0  0  0  0  0  0  0  0  0
  -23.8499   13.6993   28.3914 C   0  0  0  0  0  0  0  0  0  0  0  0
  -23.3596   14.5463   28.7907 H   0  0  0  0  0  0  0  0  0  0  0  0
  -25.1785   13.4714   28.5413 N   0  0  0  0  0  0  0  0  0  0  0  0
  -26.1417   14.2905   29.2446 C   0  0  0  0  0  0  0  0  0  0  0  0
  -27.0736   13.7180   29.3172 H   0  0  0  0  0  0  0  0  0  0  0  0
  -25.7662   14.4495   30.2612 H   0  0  0  0  0  0  0  0  0  0  0  0
  -26.3776   15.6210   28.5529 C   0  0  0  0  0  0  0  0  0  0  0  0
  -27.1039   16.2173   29.1134 H   0  0  0  0  0  0  0  0  0  0  0  0
  -25.4484   16.1949   28.4772 H   0  0  0  0  0  0  0  0  0  0  0  0
  -26.7644   15.4761   27.5388 H   0  0  0  0  0  0  0  0  0  0  0  0
  -25.5756   12.3158   27.9306 N   0  0  0  0  0  0  0  0  0  0  0  0
  -24.4842   11.8243   27.4036 C   0  0  0  0  0  0  0  0  0  0  0  0
  -24.4569   10.9186   26.8554 H   0  0  0  0  0  0  0  0  0  0  0  0
  -19.6824   12.6106   26.8361 C   0  0  0  0  0  0  0  0  0  0  0  0
  -19.2020   11.8604   27.4827 H   0  0  0  0  0  0  0  0  0  0  0  0
  -19.7651   12.0986   25.3716 C   0  0  0  0  0  0  0  0  0  0  0  0
  -20.5320   12.5887   24.7619 H   0  0  0  0  0  0  0  0  0  0  0  0
  -19.8589   11.0151   25.2547 H   0  0  0  0  0  0  0  0  0  0  0  0
  -18.3489   12.6653   25.1596 C   0  0  0  0  0  0  0  0  0  0  0  0
  -18.1611   13.1260   24.1868 H   0  0  0  0  0  0  0  0  0  0  0  0
  -17.5502   11.9469   25.3767 H   0  0  0  0  0  0  0  0  0  0  0  0
  -18.6375   13.6379   26.3188 C   0  0  0  0  0  0  0  0  0  0  0  0
  -19.0643   14.5947   25.9950 H   0  0  0  0  0  0  0  0  0  0  0  0
  -17.7956   13.8340   26.9875 H   0  0  0  0  0  0  0  0  0  0  0  0
  1  2  2  0
  2  3  1  0
  2 19  1  0
  3  4  1  0
  3  5  1  0
  5  6  2  0
  5 17  1  0
  6  7  1  0
  6  8  1  0
  8  9  1  0
  8 16  1  0
  9 10  1  0
  9 11  1  0
  9 12  1  0
 12 13  1  0
 12 14  1  0
 12 15  1  0
 16 17  2  0
 17 18  1  0
 19 20  1  0
 19 21  1  0
 19 27  1  0
 21 22  1  0
 21 23  1  0
 21 24  1  0
 24 25  1  0
 24 26  1  0
 24 27  1  0
 27 28  1  0
 27 29  1  0
M  END
$$$$
