
     RDKit          3D

 22 22  0  0  0  0  0  0  0  0999 V2000
  -17.4172   14.8042   25.4606 O   0  0  0  0  0  0  0  0  0  0  0  0
  -17.1389   15.6562   25.0822 H   0  0  0  0  0  0  0  0  0  0  0  0
  -18.5119   14.3384   24.6765 C   0  0  0  0  0  0  0  0  0  0  0  0
  -19.3760   14.9879   24.8544 H   0  0  0  0  0  0  0  0  0  0  0  0
  -18.2212   14.4170   23.6241 H   0  0  0  0  0  0  0  0  0  0  0  0
  -18.8213   12.8827   25.0200 C   0  0  0  0  0  0  0  0  0  0  0  0
  -19.4983   12.4762   24.2587 H   0  0  0  0  0  0  0  0  0  0  0  0
  -17.9001   12.2865   24.9904 H   0  0  0  0  0  0  0  0  0  0  0  0
  -19.4541   12.7246   26.3668 C   0  0  0  0  0  0  0  0  0  0  0  0
  -20.7740   12.7541   26.6583 C   0  0  0  0  0  0  0  0  0  0  0  0
  -21.6261   12.8928   26.0463 H   0  0  0  0  0  0  0  0  0  0  0  0
  -20.8644   12.5631   27.9928 N   0  0  0  0  0  0  0  0  0  0  0  0
  -22.0607   12.5042   28.8044 C   0  0  0  0  0  0  0  0  0  0  0  0
  -21.7686   12.1712   29.8061 H   0  0  0  0  0  0  0  0  0  0  0  0
  -22.4552   13.5225   28.8898 H   0  0  0  0  0  0  0  0  0  0  0  0
  -23.1037   11.5686   28.2198 C   0  0  0  0  0  0  0  0  0  0  0  0
  -22.7141   10.5474   28.1347 H   0  0  0  0  0  0  0  0  0  0  0  0
  -23.4104   11.8922   27.2195 H   0  0  0  0  0  0  0  0  0  0  0  0
  -23.9920   11.5430   28.8584 H   0  0  0  0  0  0  0  0  0  0  0  0
  -19.6435   12.4166   28.5651 N   0  0  0  0  0  0  0  0  0  0  0  0
  -18.7971   12.5128   27.5758 C   0  0  0  0  0  0  0  0  0  0  0  0
  -17.7439   12.4408   27.6967 H   0  0  0  0  0  0  0  0  0  0  0  0
  1  2  1  0
  1  3  1  0
  3  4  1  0
  3  5  1  0
  3  6  1  0
  6  7  1  0
  6  8  1  0
  6  9  1  0
  9 10  2  0
  9 21  1  0
 10 11  1  0
 10 12  1  0
 12 13  1  0
 12 20  1  0
 13 14  1  0
 13 15  1  0
 13 16  1  0
 16 17  1  0
 16 18  1  0
 16 19  1  0
 20 21  2  0
 21 22  1  0
M  END
$$$$
