
     RDKit          3D

 29 30  0  0  0  0  0  0  0  0999 V2000
  -23.1164   12.8682   27.1737 O   0  0  0  0  0  0  0  0  0  0  0  0
  -22.7695   12.5441   28.2940 C   0  0  0  0  0  0  0  0  0  0  0  0
  -21.4511   12.3255   28.5878 N   0  0  0  0  0  0  0  0  0  0  0  0
  -21.2593   12.0442   29.5563 H   0  0  0  0  0  0  0  0  0  0  0  0
  -20.3589   12.4346   27.7369 C   0  0  0  0  0  0  0  0  0  0  0  0
  -20.3651   12.7467   26.4244 C   0  0  0  0  0  0  0  0  0  0  0  0
  -21.1514   12.9745   25.7558 H   0  0  0  0  0  0  0  0  0  0  0  0
  -19.0603   12.7219   26.0550 N   0  0  0  0  0  0  0  0  0  0  0  0
  -18.5084   12.9802   24.7428 C   0  0  0  0  0  0  0  0  0  0  0  0
  -17.5840   12.3985   24.6514 H   0  0  0  0  0  0  0  0  0  0  0  0
  -19.2184   12.5996   24.0007 H   0  0  0  0  0  0  0  0  0  0  0  0
  -18.2423   14.4569   24.5125 C   0  0  0  0  0  0  0  0  0  0  0  0
  -17.8332   14.6177   23.5105 H   0  0  0  0  0  0  0  0  0  0  0  0
  -19.1634   15.0413   24.6045 H   0  0  0  0  0  0  0  0  0  0  0  0
  -17.5245   14.8475   25.2414 H   0  0  0  0  0  0  0  0  0  0  0  0
  -18.2351   12.4081   27.0974 N   0  0  0  0  0  0  0  0  0  0  0  0
  -19.0359   12.2337   28.1166 C   0  0  0  0  0  0  0  0  0  0  0  0
  -18.6987   11.9752   29.0868 H   0  0  0  0  0  0  0  0  0  0  0  0
  -23.7344   12.3342   29.4987 C   0  0  0  0  0  0  0  0  0  0  0  0
  -23.7634   11.2859   29.8333 H   0  0  0  0  0  0  0  0  0  0  0  0
  -23.5719   13.2917   30.7115 C   0  0  0  0  0  0  0  0  0  0  0  0
  -23.1682   14.2784   30.4599 H   0  0  0  0  0  0  0  0  0  0  0  0
  -23.0146   12.8871   31.5612 H   0  0  0  0  0  0  0  0  0  0  0  0
  -25.1051   13.2676   30.8559 C   0  0  0  0  0  0  0  0  0  0  0  0
  -25.5715   14.2144   31.1384 H   0  0  0  0  0  0  0  0  0  0  0  0
  -25.4724   12.4748   31.5176 H   0  0  0  0  0  0  0  0  0  0  0  0
  -25.1730   12.9053   29.3603 C   0  0  0  0  0  0  0  0  0  0  0  0
  -25.2531   13.7766   28.6992 H   0  0  0  0  0  0  0  0  0  0  0  0
  -25.9451   12.1816   29.0873 H   0  0  0  0  0  0  0  0  0  0  0  0
  1  2  2  0
  2  3  1  0
  2 19  1  0
  3  4  1  0
  3  5  1  0
  5  6  2  0
  5 17  1  0
  6  7  1  0
  6  8  1  0
  8  9  1  0
  8 16  1  0
  9 10  1  0
  9 11  1  0
  9 12  1  0
 12 13  1  0
 12 14  1  0
 12 15  1  0
 16 17  2  0
 17 18  1  0
 19 20  1  0
 19 21  1  0
 19 27  1  0
 21 22  1  0
 21 23  1  0
 21 24  1  0
 24 25  1  0
 24 26  1  0
 24 27  1  0
 27 28  1  0
 27 29  1  0
M  END
$$$$
