
     RDKit          3D

 14 14  0  0  0  0  0  0  0  0999 V2000
  -18.0702   16.6725   27.5833 O   0  0  0  0  0  0  0  0  0  0  0  0
  -16.8198   16.6024   27.4256 C   0  0  0  0  0  0  0  0  0  0  0  0
  -16.1504   15.7591   28.0927 O   0  0  0  0  0  0  0  0  0  0  0  0
  -16.1533   17.4870   26.4785 C   0  0  0  0  0  0  0  0  0  0  0  0
  -16.6664   18.6331   25.8943 C   0  0  0  0  0  0  0  0  0  0  0  0
  -18.0412   19.1812   26.1437 C   0  0  0  0  0  0  0  0  0  0  0  0
  -18.2149   20.0935   25.5638 H   0  0  0  0  0  0  0  0  0  0  0  0
  -18.1706   19.4347   27.2007 H   0  0  0  0  0  0  0  0  0  0  0  0
  -18.8058   18.4551   25.8479 H   0  0  0  0  0  0  0  0  0  0  0  0
  -15.7615   19.2599   25.0225 C   0  0  0  0  0  0  0  0  0  0  0  0
  -15.9803   20.1481   24.4889 H   0  0  0  0  0  0  0  0  0  0  0  0
  -14.5662   18.6080   24.9315 C   0  0  0  0  0  0  0  0  0  0  0  0
  -13.7269   18.8788   24.3449 H   0  0  0  0  0  0  0  0  0  0  0  0
  -14.5281   17.2013   25.9223 S   0  0  0  0  0  0  0  0  0  0  0  0
  1  2  1  0
  2  3  2  0
  2  4  1  0
  4  5  2  0
  4 14  1  0
  5  6  1  0
  5 10  1  0
  6  7  1  0
  6  8  1  0
  6  9  1  0
 10 11  1  0
 10 12  2  0
 12 13  1  0
 12 14  1  0
M  END
$$$$
