
     RDKit          3D

 19 19  0  0  0  0  0  0  0  0999 V2000
  -20.8760   13.9779   28.1196 O   0  0  0  0  0  0  0  0  0  0  0  0
  -20.8293   13.1549   27.2167 C   0  0  0  0  0  0  0  0  0  0  0  0
  -21.7031   12.1629   27.1191 N   0  0  0  0  0  0  0  0  0  0  0  0
  -21.6296   11.4961   26.3701 H   0  0  0  0  0  0  0  0  0  0  0  0
  -22.7797   11.9903   28.0712 C   0  0  0  0  0  0  0  0  0  0  0  0
  -23.2047   10.9895   27.9375 H   0  0  0  0  0  0  0  0  0  0  0  0
  -22.3677   12.0489   29.0844 H   0  0  0  0  0  0  0  0  0  0  0  0
  -23.8017   13.0447   27.8406 C   0  0  0  0  0  0  0  0  0  0  0  0
  -23.9714   14.1880   28.5459 C   0  0  0  0  0  0  0  0  0  0  0  0
  -23.4532   14.5854   29.3804 H   0  0  0  0  0  0  0  0  0  0  0  0
  -25.0133   14.8237   27.9683 N   0  0  0  0  0  0  0  0  0  0  0  0
  -25.3994   15.7377   28.2704 H   0  0  0  0  0  0  0  0  0  0  0  0
  -25.5200   14.1205   26.9222 N   0  0  0  0  0  0  0  0  0  0  0  0
  -24.7803   13.0481   26.8516 C   0  0  0  0  0  0  0  0  0  0  0  0
  -24.9282   12.2876   26.1263 H   0  0  0  0  0  0  0  0  0  0  0  0
  -19.7584   13.1841   26.1618 C   0  0  0  0  0  0  0  0  0  0  0  0
  -20.0981   12.7041   25.2398 H   0  0  0  0  0  0  0  0  0  0  0  0
  -18.8749   12.6603   26.5344 H   0  0  0  0  0  0  0  0  0  0  0  0
  -19.4998   14.2225   25.9364 H   0  0  0  0  0  0  0  0  0  0  0  0
  1  2  2  0
  2  3  1  0
  2 16  1  0
  3  4  1  0
  3  5  1  0
  5  6  1  0
  5  7  1  0
  5  8  1  0
  8  9  2  0
  8 14  1  0
  9 10  1  0
  9 11  1  0
 11 12  1  0
 11 13  1  0
 13 14  2  0
 14 15  1  0
 16 17  1  0
 16 18  1  0
 16 19  1  0
M  END
$$$$
