
     RDKit          3D

 17 18  0  0  0  0  0  0  0  0999 V2000
  -18.7868   14.6098   26.3546 Br  0  0  0  0  0  0  0  0  0  0  0  0
  -17.8009   16.2227   26.3991 C   0  0  0  0  0  0  0  0  0  0  0  0
  -16.4251   16.1902   26.6146 C   0  0  0  0  0  0  0  0  0  0  0  0
  -15.9129   15.2752   26.7569 H   0  0  0  0  0  0  0  0  0  0  0  0
  -15.7458   17.4008   26.6400 C   0  0  0  0  0  0  0  0  0  0  0  0
  -14.3888   17.6088   26.8374 N   0  0  0  0  0  0  0  0  0  0  0  0
  -13.6656   16.8973   26.9981 H   0  0  0  0  0  0  0  0  0  0  0  0
  -14.0869   18.9281   26.7965 C   0  0  0  0  0  0  0  0  0  0  0  0
  -12.9499   19.3087   26.9490 O   0  0  0  0  0  0  0  0  0  0  0  0
  -15.3655   19.7233   26.5433 C   0  0  0  0  0  0  0  0  0  0  0  0
  -15.5629   20.3885   27.3870 H   0  0  0  0  0  0  0  0  0  0  0  0
  -15.2835   20.2662   25.5988 H   0  0  0  0  0  0  0  0  0  0  0  0
  -16.3720   18.6178   26.4607 C   0  0  0  0  0  0  0  0  0  0  0  0
  -17.7453   18.6505   26.2436 C   0  0  0  0  0  0  0  0  0  0  0  0
  -18.2468   19.5746   26.1024 H   0  0  0  0  0  0  0  0  0  0  0  0
  -18.4579   17.4487   26.2134 C   0  0  0  0  0  0  0  0  0  0  0  0
  -19.5044   17.4608   26.0488 H   0  0  0  0  0  0  0  0  0  0  0  0
  1  2  1  0
  2  3  1  0
  2 16  2  0
  3  4  1  0
  3  5  2  0
  5  6  1  0
  5 13  1  0
  6  7  1  0
  6  8  1  0
  8  9  2  0
  8 10  1  0
 10 11  1  0
 10 12  1  0
 10 13  1  0
 13 14  2  0
 14 15  1  0
 14 16  1  0
 16 17  1  0
M  END
$$$$
