
     RDKit          3D

 20 20  0  0  0  0  0  0  0  0999 V2000
  -14.5961   18.7185   25.3543 S   0  0  0  0  0  0  0  0  0  0  0  0
  -14.4995   20.0974   25.7747 O   0  0  0  0  0  0  0  0  0  0  0  0
  -13.5850   17.7397   25.6906 O   0  0  0  0  0  0  0  0  0  0  0  0
  -14.7432   18.7219   23.6745 N   0  0  0  0  0  0  0  0  0  0  0  0
  -14.8339   17.7781   23.2919 H   0  0  0  0  0  0  0  0  0  0  0  0
  -15.4630   19.3723   23.3489 H   0  0  0  0  0  0  0  0  0  0  0  0
  -16.1662   18.0904   25.8439 C   0  0  0  0  0  0  0  0  0  0  0  0
  -16.2826   16.7905   26.3452 C   0  0  0  0  0  0  0  0  0  0  0  0
  -15.4341   16.1602   26.4153 H   0  0  0  0  0  0  0  0  0  0  0  0
  -17.5270   16.3370   26.7557 C   0  0  0  0  0  0  0  0  0  0  0  0
  -17.6331   15.0879   27.2322 F   0  0  0  0  0  0  0  0  0  0  0  0
  -18.6643   17.1283   26.6977 C   0  0  0  0  0  0  0  0  0  0  0  0
  -19.5957   16.7433   27.0251 H   0  0  0  0  0  0  0  0  0  0  0  0
  -18.5554   18.4286   26.2101 C   0  0  0  0  0  0  0  0  0  0  0  0
  -19.7559   19.3287   26.1781 C   0  0  0  0  0  0  0  0  0  0  0  0
  -20.6755   18.7509   26.0377 H   0  0  0  0  0  0  0  0  0  0  0  0
  -19.6891   20.0387   25.3474 H   0  0  0  0  0  0  0  0  0  0  0  0
  -19.8291   19.8879   27.1155 H   0  0  0  0  0  0  0  0  0  0  0  0
  -17.3079   18.9022   25.7935 C   0  0  0  0  0  0  0  0  0  0  0  0
  -17.2152   19.8976   25.4351 H   0  0  0  0  0  0  0  0  0  0  0  0
  1  2  2  0
  1  3  2  0
  1  4  1  0
  1  7  1  0
  4  5  1  0
  4  6  1  0
  7  8  1  0
  7 19  2  0
  8  9  1  0
  8 10  2  0
 10 11  1  0
 10 12  1  0
 12 13  1  0
 12 14  2  0
 14 15  1  0
 14 19  1  0
 15 16  1  0
 15 17  1  0
 15 18  1  0
 19 20  1  0
M  END
$$$$
