
     RDKit          3D

 20 20  0  0  0  0  0  0  0  0999 V2000
  -24.2771   12.8331   26.7542 S   0  0  0  0  0  0  0  0  0  0  0  0
  -25.4252   13.3346   26.0347 O   0  0  0  0  0  0  0  0  0  0  0  0
  -22.9472   12.8456   26.1844 O   0  0  0  0  0  0  0  0  0  0  0  0
  -24.6182   11.2379   27.1814 N   0  0  0  0  0  0  0  0  0  0  0  0
  -25.1945   10.7646   26.4820 H   0  0  0  0  0  0  0  0  0  0  0  0
  -23.7774   10.7184   27.4464 H   0  0  0  0  0  0  0  0  0  0  0  0
  -24.2166   13.6144   28.3307 C   0  0  0  0  0  0  0  0  0  0  0  0
  -23.6481   12.9556   29.4250 C   0  0  0  0  0  0  0  0  0  0  0  0
  -23.2682   11.9717   29.3258 H   0  0  0  0  0  0  0  0  0  0  0  0
  -23.5831   13.6112   30.6451 C   0  0  0  0  0  0  0  0  0  0  0  0
  -23.0401   12.9728   31.6920 F   0  0  0  0  0  0  0  0  0  0  0  0
  -24.0530   14.9039   30.8218 C   0  0  0  0  0  0  0  0  0  0  0  0
  -23.9808   15.3694   31.7710 H   0  0  0  0  0  0  0  0  0  0  0  0
  -24.6108   15.5719   29.7342 C   0  0  0  0  0  0  0  0  0  0  0  0
  -25.0853   16.9885   29.8774 C   0  0  0  0  0  0  0  0  0  0  0  0
  -25.4351   17.1836   30.8966 H   0  0  0  0  0  0  0  0  0  0  0  0
  -25.9239   17.1891   29.2027 H   0  0  0  0  0  0  0  0  0  0  0  0
  -24.2712   17.6810   29.6442 H   0  0  0  0  0  0  0  0  0  0  0  0
  -24.6826   14.9260   28.4965 C   0  0  0  0  0  0  0  0  0  0  0  0
  -25.0927   15.4353   27.6596 H   0  0  0  0  0  0  0  0  0  0  0  0
  1  2  2  0
  1  3  2  0
  1  4  1  0
  1  7  1  0
  4  5  1  0
  4  6  1  0
  7  8  1  0
  7 19  2  0
  8  9  1  0
  8 10  2  0
 10 11  1  0
 10 12  1  0
 12 13  1  0
 12 14  2  0
 14 15  1  0
 14 19  1  0
 15 16  1  0
 15 17  1  0
 15 18  1  0
 19 20  1  0
M  END
$$$$
