
     RDKit          3D

 26 27  0  0  0  0  0  0  0  0999 V2000
  -24.2947   12.5145   26.2095 O   0  0  0  0  0  0  0  0  0  0  0  0
  -24.5755   12.6611   27.4059 C   0  0  0  0  0  0  0  0  0  0  0  0
  -23.8646   11.9429   28.3769 N   0  0  0  0  0  0  0  0  0  0  0  0
  -22.7769   11.0452   27.9970 C   0  0  0  0  0  0  0  0  0  0  0  0
  -22.4695   10.4758   28.8823 H   0  0  0  0  0  0  0  0  0  0  0  0
  -23.1335   10.3257   27.2519 H   0  0  0  0  0  0  0  0  0  0  0  0
  -21.6380   11.8281   27.4684 C   0  0  0  0  0  0  0  0  0  0  0  0
  -20.7796   11.1977   26.6635 O   0  0  0  0  0  0  0  0  0  0  0  0
  -19.8050   12.0338   26.2826 N   0  0  0  0  0  0  0  0  0  0  0  0
  -20.0427   13.1724   26.8363 C   0  0  0  0  0  0  0  0  0  0  0  0
  -19.1528   14.3313   26.6177 C   0  0  0  0  0  0  0  0  0  0  0  0
  -19.3873   15.1446   27.3125 H   0  0  0  0  0  0  0  0  0  0  0  0
  -19.2674   14.7148   25.5982 H   0  0  0  0  0  0  0  0  0  0  0  0
  -18.1042   14.0541   26.7675 H   0  0  0  0  0  0  0  0  0  0  0  0
  -21.1959   13.0878   27.6030 C   0  0  0  0  0  0  0  0  0  0  0  0
  -21.6411   13.8555   28.1811 H   0  0  0  0  0  0  0  0  0  0  0  0
  -24.1318   12.0375   29.7276 N   0  0  0  0  0  0  0  0  0  0  0  0
  -25.0753   12.8197   30.1506 C   0  0  0  0  0  0  0  0  0  0  0  0
  -25.3503   12.9049   31.6253 C   0  0  0  0  0  0  0  0  0  0  0  0
  -24.4311   13.1860   32.1492 H   0  0  0  0  0  0  0  0  0  0  0  0
  -25.6804   11.9260   31.9866 H   0  0  0  0  0  0  0  0  0  0  0  0
  -26.1238   13.6440   31.8481 H   0  0  0  0  0  0  0  0  0  0  0  0
  -25.8484   13.5941   29.2374 C   0  0  0  0  0  0  0  0  0  0  0  0
  -26.6102   14.2267   29.6142 H   0  0  0  0  0  0  0  0  0  0  0  0
  -25.6048   13.5196   27.8973 C   0  0  0  0  0  0  0  0  0  0  0  0
  -26.1606   14.0812   27.1938 H   0  0  0  0  0  0  0  0  0  0  0  0
  1  2  2  0
  2  3  1  0
  2 25  1  0
  3  4  1  0
  3 17  1  0
  4  5  1  0
  4  6  1  0
  4  7  1  0
  7  8  1  0
  7 15  2  0
  8  9  1  0
  9 10  2  0
 10 11  1  0
 10 15  1  0
 11 12  1  0
 11 13  1  0
 11 14  1  0
 15 16  1  0
 17 18  2  0
 18 19  1  0
 18 23  1  0
 19 20  1  0
 19 21  1  0
 19 22  1  0
 23 24  1  0
 23 25  2  0
 25 26  1  0
M  END
$$$$
