
     RDKit          3D

 17 18  0  0  0  0  0  0  0  0999 V2000
  -24.0678   13.4250   27.0801 Br  0  0  0  0  0  0  0  0  0  0  0  0
  -23.6440   12.5806   28.7180 C   0  0  0  0  0  0  0  0  0  0  0  0
  -23.4255   11.2054   28.7546 C   0  0  0  0  0  0  0  0  0  0  0  0
  -23.4931   10.6151   27.8789 H   0  0  0  0  0  0  0  0  0  0  0  0
  -23.1186   10.6318   29.9812 C   0  0  0  0  0  0  0  0  0  0  0  0
  -22.8650    9.2957   30.2537 N   0  0  0  0  0  0  0  0  0  0  0  0
  -22.8644    8.5127   29.5890 H   0  0  0  0  0  0  0  0  0  0  0  0
  -22.6012    9.1081   31.5685 C   0  0  0  0  0  0  0  0  0  0  0  0
  -22.3559    8.0061   32.0002 O   0  0  0  0  0  0  0  0  0  0  0  0
  -22.6777   10.4526   32.2880 C   0  0  0  0  0  0  0  0  0  0  0  0
  -23.4703   10.4277   33.0393 H   0  0  0  0  0  0  0  0  0  0  0  0
  -21.7049   10.6974   32.7207 H   0  0  0  0  0  0  0  0  0  0  0  0
  -23.0212   11.3616   31.1487 C   0  0  0  0  0  0  0  0  0  0  0  0
  -23.2373   12.7349   31.1123 C   0  0  0  0  0  0  0  0  0  0  0  0
  -23.1665   13.3153   31.9974 H   0  0  0  0  0  0  0  0  0  0  0  0
  -23.5491   13.3423   29.8929 C   0  0  0  0  0  0  0  0  0  0  0  0
  -23.7158   14.3877   29.8525 H   0  0  0  0  0  0  0  0  0  0  0  0
  1  2  1  0
  2  3  1  0
  2 16  2  0
  3  4  1  0
  3  5  2  0
  5  6  1  0
  5 13  1  0
  6  7  1  0
  6  8  1  0
  8  9  2  0
  8 10  1  0
 10 11  1  0
 10 12  1  0
 10 13  1  0
 13 14  2  0
 14 15  1  0
 14 16  1  0
 16 17  1  0
M  END
$$$$
