
     RDKit          3D

 30 31  0  0  0  0  0  0  0  0999 V2000
  -19.6278   10.9265   25.4277 F   0  0  0  0  0  0  0  0  0  0  0  0
  -19.1550   12.1675   25.6128 C   0  0  0  0  0  0  0  0  0  0  0  0
  -19.3214   13.1071   24.6024 C   0  0  0  0  0  0  0  0  0  0  0  0
  -19.8110   12.8403   23.7024 H   0  0  0  0  0  0  0  0  0  0  0  0
  -18.8296   14.3942   24.7945 C   0  0  0  0  0  0  0  0  0  0  0  0
  -18.9258   15.1226   24.0337 H   0  0  0  0  0  0  0  0  0  0  0  0
  -18.1839   14.7243   25.9942 C   0  0  0  0  0  0  0  0  0  0  0  0
  -17.6910   16.0085   26.1863 N   0  0  0  0  0  0  0  0  0  0  0  0
  -18.5685   17.1867   26.2067 C   0  0  0  0  0  0  0  0  0  0  0  0
  -18.3582   17.8020   25.3235 H   0  0  0  0  0  0  0  0  0  0  0  0
  -19.6308   16.9198   26.1812 H   0  0  0  0  0  0  0  0  0  0  0  0
  -18.3160   17.9966   27.4880 C   0  0  0  0  0  0  0  0  0  0  0  0
  -18.6373   17.4185   28.3629 H   0  0  0  0  0  0  0  0  0  0  0  0
  -18.9151   18.9129   27.4685 H   0  0  0  0  0  0  0  0  0  0  0  0
  -16.8904   18.2912   27.6833 N   0  0  0  0  0  0  0  0  0  0  0  0
  -16.5020   19.5908   27.8621 C   0  0  0  0  0  0  0  0  0  0  0  0
  -17.2367   20.5500   27.6972 O   0  0  0  0  0  0  0  0  0  0  0  0
  -15.2401   19.7828   28.2545 N   0  0  0  0  0  0  0  0  0  0  0  0
  -15.0020   19.3382   29.1474 H   0  0  0  0  0  0  0  0  0  0  0  0
  -14.5369   19.8037   27.5128 H   0  0  0  0  0  0  0  0  0  0  0  0
  -16.0199   17.1026   27.6392 C   0  0  0  0  0  0  0  0  0  0  0  0
  -14.9626   17.3718   27.6821 H   0  0  0  0  0  0  0  0  0  0  0  0
  -16.2557   16.5016   28.5248 H   0  0  0  0  0  0  0  0  0  0  0  0
  -16.2588   16.2857   26.3584 C   0  0  0  0  0  0  0  0  0  0  0  0
  -15.6429   15.3803   26.3767 H   0  0  0  0  0  0  0  0  0  0  0  0
  -15.9209   16.8684   25.4919 H   0  0  0  0  0  0  0  0  0  0  0  0
  -18.0222   13.7584   27.0012 C   0  0  0  0  0  0  0  0  0  0  0  0
  -17.5428   14.0018   27.9108 H   0  0  0  0  0  0  0  0  0  0  0  0
  -18.5137   12.4711   26.8077 C   0  0  0  0  0  0  0  0  0  0  0  0
  -18.4067   11.7288   27.5548 H   0  0  0  0  0  0  0  0  0  0  0  0
  1  2  1  0
  2  3  1  0
  2 29  2  0
  3  4  1  0
  3  5  2  0
  5  6  1  0
  5  7  1  0
  7  8  1  0
  7 27  2  0
  8  9  1  0
  8 24  1  0
  9 10  1  0
  9 11  1  0
  9 12  1  0
 12 13  1  0
 12 14  1  0
 12 15  1  0
 15 16  1  0
 15 21  1  0
 16 17  2  0
 16 18  1  0
 18 19  1  0
 18 20  1  0
 21 22  1  0
 21 23  1  0
 21 24  1  0
 24 25  1  0
 24 26  1  0
 27 28  1  0
 27 29  1  0
 29 30  1  0
M  END
$$$$
