
     RDKit          3D

 26 28  0  0  0  0  0  0  0  0999 V2000
  -22.7178   12.7533   26.3497 O   0  0  0  0  0  0  0  0  0  0  0  0
  -22.4054   12.7281   27.5360 C   0  0  0  0  0  0  0  0  0  0  0  0
  -21.0797   12.8864   27.8525 N   0  0  0  0  0  0  0  0  0  0  0  0
  -20.8261   12.9810   28.8401 H   0  0  0  0  0  0  0  0  0  0  0  0
  -20.0377   12.9576   26.8775 C   0  0  0  0  0  0  0  0  0  0  0  0
  -20.0237   13.9048   26.3423 H   0  0  0  0  0  0  0  0  0  0  0  0
  -19.6291   11.7401   26.0934 C   0  0  0  0  0  0  0  0  0  0  0  0
  -20.1096   10.7934   26.3091 H   0  0  0  0  0  0  0  0  0  0  0  0
  -19.3649   11.8771   25.0514 H   0  0  0  0  0  0  0  0  0  0  0  0
  -18.7060   12.3061   27.1315 C   0  0  0  0  0  0  0  0  0  0  0  0
  -17.8206   12.8335   26.7982 H   0  0  0  0  0  0  0  0  0  0  0  0
  -18.5732   11.7534   28.0537 H   0  0  0  0  0  0  0  0  0  0  0  0
  -23.3977   12.5910   28.6245 C   0  0  0  0  0  0  0  0  0  0  0  0
  -24.7485   12.8563   28.3292 C   0  0  0  0  0  0  0  0  0  0  0  0
  -25.0428   13.1500   27.3552 H   0  0  0  0  0  0  0  0  0  0  0  0
  -25.6899   12.7278   29.3367 C   0  0  0  0  0  0  0  0  0  0  0  0
  -27.0246   12.9503   29.2164 O   0  0  0  0  0  0  0  0  0  0  0  0
  -27.4707   12.6647   30.5585 C   0  0  0  0  0  0  0  0  0  0  0  0
  -27.9549   13.5592   30.9649 H   0  0  0  0  0  0  0  0  0  0  0  0
  -28.2066   11.8535   30.5185 H   0  0  0  0  0  0  0  0  0  0  0  0
  -26.4018   12.2748   31.4464 O   0  0  0  0  0  0  0  0  0  0  0  0
  -25.3354   12.3427   30.6059 C   0  0  0  0  0  0  0  0  0  0  0  0
  -24.0165   12.0618   30.9336 C   0  0  0  0  0  0  0  0  0  0  0  0
  -23.7628   11.7580   31.9171 H   0  0  0  0  0  0  0  0  0  0  0  0
  -23.0482   12.1837   29.9362 C   0  0  0  0  0  0  0  0  0  0  0  0
  -22.0398   11.9539   30.1686 H   0  0  0  0  0  0  0  0  0  0  0  0
  1  2  2  0
  2  3  1  0
  2 13  1  0
  3  4  1  0
  3  5  1  0
  5  6  1  0
  5  7  1  0
  5 10  1  0
  7  8  1  0
  7  9  1  0
  7 10  1  0
 10 11  1  0
 10 12  1  0
 13 14  1  0
 13 25  2  0
 14 15  1  0
 14 16  2  0
 16 17  1  0
 16 22  1  0
 17 18  1  0
 18 19  1  0
 18 20  1  0
 18 21  1  0
 21 22  1  0
 22 23  2  0
 23 24  1  0
 23 25  1  0
 25 26  1  0
M  END
$$$$
