
     RDKit          3D

 23 24  0  0  0  0  0  0  0  0999 V2000
  -22.5366   11.6102   27.5850 C   0  0  0  0  0  0  0  0  0  0  0  0
  -22.0886   11.8586   28.5494 H   0  0  0  0  0  0  0  0  0  0  0  0
  -21.8016   11.7705   26.7923 H   0  0  0  0  0  0  0  0  0  0  0  0
  -22.8754   10.5707   27.5831 H   0  0  0  0  0  0  0  0  0  0  0  0
  -23.6746   12.4542   27.3449 N   0  0  0  0  0  0  0  0  0  0  0  0
  -24.1414   12.6058   26.0973 N   0  0  0  0  0  0  0  0  0  0  0  0
  -25.1836   13.4026   26.1549 N   0  0  0  0  0  0  0  0  0  0  0  0
  -25.3501   13.7456   27.4496 C   0  0  0  0  0  0  0  0  0  0  0  0
  -24.4031   13.1655   28.2038 C   0  0  0  0  0  0  0  0  0  0  0  0
  -24.2276   13.3113   29.6727 C   0  0  0  0  0  0  0  0  0  0  0  0
  -23.9790   12.3474   30.1284 H   0  0  0  0  0  0  0  0  0  0  0  0
  -23.3722   13.9759   29.8491 H   0  0  0  0  0  0  0  0  0  0  0  0
  -25.4889   13.9554   30.2997 C   0  0  0  0  0  0  0  0  0  0  0  0
  -26.5050   12.8810   30.6997 C   0  0  0  0  0  0  0  0  0  0  0  0
  -26.4733   12.4785   31.8844 O   0  0  0  0  0  0  0  0  0  0  0  0
  -27.3252   12.5022   29.8352 O   0  0  0  0  0  0  0  0  0  0  0  0
  -26.0779   15.0792   29.4085 C   0  0  0  0  0  0  0  0  0  0  0  0
  -26.9679   15.5206   29.8716 H   0  0  0  0  0  0  0  0  0  0  0  0
  -25.3328   15.8846   29.3429 H   0  0  0  0  0  0  0  0  0  0  0  0
  -26.4249   14.6129   27.9765 C   0  0  0  0  0  0  0  0  0  0  0  0
  -26.5635   15.4869   27.3302 H   0  0  0  0  0  0  0  0  0  0  0  0
  -27.3679   14.0554   27.9784 H   0  0  0  0  0  0  0  0  0  0  0  0
  -25.1873   14.4130   31.2527 H   0  0  0  0  0  0  0  0  0  0  0  0
  1  2  1  0
  1  3  1  0
  1  4  1  0
  1  5  1  0
  5  6  1  0
  5  9  1  0
  6  7  2  0
  7  8  1  0
  8  9  2  0
  8 20  1  0
  9 10  1  0
 10 11  1  0
 10 12  1  0
 10 13  1  0
 13 14  1  0
 13 17  1  0
 13 23  1  0
 14 15  1  0
 14 16  2  0
 17 18  1  0
 17 19  1  0
 17 20  1  0
 20 21  1  0
 20 22  1  0
M  END
$$$$
