
     RDKit          3D

 24 24  0  0  0  0  0  0  0  0999 V2000
  -25.3583   13.8926   31.6668 O   0  0  0  0  0  0  0  0  0  0  0  0
  -24.9906   13.1939   30.7305 C   0  0  0  0  0  0  0  0  0  0  0  0
  -24.0965   12.1742   30.8410 O   0  0  0  0  0  0  0  0  0  0  0  0
  -23.6017   11.9489   32.1671 C   0  0  0  0  0  0  0  0  0  0  0  0
  -23.1219   12.8594   32.5418 H   0  0  0  0  0  0  0  0  0  0  0  0
  -24.4303   11.6684   32.8266 H   0  0  0  0  0  0  0  0  0  0  0  0
  -22.5885   10.8226   32.1084 C   0  0  0  0  0  0  0  0  0  0  0  0
  -21.7653   11.0786   31.4326 H   0  0  0  0  0  0  0  0  0  0  0  0
  -23.0506    9.9100   31.7166 H   0  0  0  0  0  0  0  0  0  0  0  0
  -22.1790   10.6134   33.1008 H   0  0  0  0  0  0  0  0  0  0  0  0
  -25.4536   13.3715   29.4524 N   0  0  0  0  0  0  0  0  0  0  0  0
  -26.4360   14.4094   29.1417 C   0  0  0  0  0  0  0  0  0  0  0  0
  -27.3732   13.8892   28.9119 H   0  0  0  0  0  0  0  0  0  0  0  0
  -26.6122   15.0639   30.0013 H   0  0  0  0  0  0  0  0  0  0  0  0
  -25.9861   15.2288   27.9321 C   0  0  0  0  0  0  0  0  0  0  0  0
  -25.0905   15.8182   28.1636 H   0  0  0  0  0  0  0  0  0  0  0  0
  -26.7781   15.9233   27.6335 H   0  0  0  0  0  0  0  0  0  0  0  0
  -25.7069   14.3760   26.8123 O   0  0  0  0  0  0  0  0  0  0  0  0
  -24.6563   13.4495   27.1271 C   0  0  0  0  0  0  0  0  0  0  0  0
  -24.4723   12.8385   26.2378 H   0  0  0  0  0  0  0  0  0  0  0  0
  -23.7398   14.0117   27.3450 H   0  0  0  0  0  0  0  0  0  0  0  0
  -25.0489   12.5563   28.3049 C   0  0  0  0  0  0  0  0  0  0  0  0
  -24.2267   11.8798   28.5540 H   0  0  0  0  0  0  0  0  0  0  0  0
  -25.9200   11.9475   28.0371 H   0  0  0  0  0  0  0  0  0  0  0  0
  1  2  2  0
  2  3  1  0
  2 11  1  0
  3  4  1  0
  4  5  1  0
  4  6  1  0
  4  7  1  0
  7  8  1  0
  7  9  1  0
  7 10  1  0
 11 12  1  0
 11 22  1  0
 12 13  1  0
 12 14  1  0
 12 15  1  0
 15 16  1  0
 15 17  1  0
 15 18  1  0
 18 19  1  0
 19 20  1  0
 19 21  1  0
 19 22  1  0
 22 23  1  0
 22 24  1  0
M  END
$$$$
