
     RDKit          3D

 18 18  0  0  0  0  0  0  0  0999 V2000
  -20.0837   14.5575   27.6135 O   0  0  0  0  0  0  0  0  0  0  0  0
  -20.2215   13.6826   26.7706 C   0  0  0  0  0  0  0  0  0  0  0  0
  -21.0965   12.6378   26.8692 O   0  0  0  0  0  0  0  0  0  0  0  0
  -21.7980   12.5105   28.1159 C   0  0  0  0  0  0  0  0  0  0  0  0
  -22.2715   13.4773   28.3169 H   0  0  0  0  0  0  0  0  0  0  0  0
  -21.1066   12.3117   28.9423 H   0  0  0  0  0  0  0  0  0  0  0  0
  -22.8604   11.4338   28.0084 C   0  0  0  0  0  0  0  0  0  0  0  0
  -22.4101   10.4565   27.8074 H   0  0  0  0  0  0  0  0  0  0  0  0
  -23.5414   11.6463   27.1779 H   0  0  0  0  0  0  0  0  0  0  0  0
  -23.4410   11.3680   28.9329 H   0  0  0  0  0  0  0  0  0  0  0  0
  -19.4508   13.6500   25.5409 C   0  0  0  0  0  0  0  0  0  0  0  0
  -19.3523   12.6210   24.6513 C   0  0  0  0  0  0  0  0  0  0  0  0
  -19.7878   11.6551   24.6414 H   0  0  0  0  0  0  0  0  0  0  0  0
  -18.5329   13.0528   23.6785 N   0  0  0  0  0  0  0  0  0  0  0  0
  -18.2517   12.5005   22.8445 H   0  0  0  0  0  0  0  0  0  0  0  0
  -18.0966   14.3222   23.9034 N   0  0  0  0  0  0  0  0  0  0  0  0
  -18.6538   14.6745   25.0277 C   0  0  0  0  0  0  0  0  0  0  0  0
  -18.5091   15.6235   25.4798 H   0  0  0  0  0  0  0  0  0  0  0  0
  1  2  2  0
  2  3  1  0
  2 11  1  0
  3  4  1  0
  4  5  1  0
  4  6  1  0
  4  7  1  0
  7  8  1  0
  7  9  1  0
  7 10  1  0
 11 12  2  0
 11 17  1  0
 12 13  1  0
 12 14  1  0
 14 15  1  0
 14 16  1  0
 16 17  2  0
 17 18  1  0
M  END
$$$$
