
     RDKit          3D

 30 31  0  0  0  0  0  0  0  0999 V2000
  -14.9293   19.7396   26.5438 F   0  0  0  0  0  0  0  0  0  0  0  0
  -15.7301   18.6880   26.3186 C   0  0  0  0  0  0  0  0  0  0  0  0
  -17.1053   18.8860   26.2864 C   0  0  0  0  0  0  0  0  0  0  0  0
  -17.5079   19.8528   26.4413 H   0  0  0  0  0  0  0  0  0  0  0  0
  -17.9357   17.7943   26.0539 C   0  0  0  0  0  0  0  0  0  0  0  0
  -18.9865   17.9142   26.0437 H   0  0  0  0  0  0  0  0  0  0  0  0
  -17.3800   16.5232   25.8525 C   0  0  0  0  0  0  0  0  0  0  0  0
  -18.2083   15.4324   25.6220 N   0  0  0  0  0  0  0  0  0  0  0  0
  -18.4638   14.9179   24.2698 C   0  0  0  0  0  0  0  0  0  0  0  0
  -19.5128   15.1054   24.0103 H   0  0  0  0  0  0  0  0  0  0  0  0
  -17.8410   15.4041   23.5107 H   0  0  0  0  0  0  0  0  0  0  0  0
  -18.1695   13.4102   24.2267 C   0  0  0  0  0  0  0  0  0  0  0  0
  -17.0964   13.2364   24.3721 H   0  0  0  0  0  0  0  0  0  0  0  0
  -18.4306   13.0122   23.2407 H   0  0  0  0  0  0  0  0  0  0  0  0
  -18.8592   12.6820   25.2996 N   0  0  0  0  0  0  0  0  0  0  0  0
  -19.6575   11.6204   24.9714 C   0  0  0  0  0  0  0  0  0  0  0  0
  -19.9797   11.3381   23.8297 O   0  0  0  0  0  0  0  0  0  0  0  0
  -20.0792   10.8611   25.9857 N   0  0  0  0  0  0  0  0  0  0  0  0
  -21.0595   10.5681   25.9163 H   0  0  0  0  0  0  0  0  0  0  0  0
  -19.3962   10.2050   26.3704 H   0  0  0  0  0  0  0  0  0  0  0  0
  -18.6106   13.2221   26.6483 C   0  0  0  0  0  0  0  0  0  0  0  0
  -19.2206   12.7234   27.4042 H   0  0  0  0  0  0  0  0  0  0  0  0
  -17.5565   13.0310   26.8792 H   0  0  0  0  0  0  0  0  0  0  0  0
  -18.9069   14.7301   26.7066 C   0  0  0  0  0  0  0  0  0  0  0  0
  -18.6606   15.1174   27.7010 H   0  0  0  0  0  0  0  0  0  0  0  0
  -19.9845   14.8902   26.5738 H   0  0  0  0  0  0  0  0  0  0  0  0
  -15.9874   16.3439   25.8934 C   0  0  0  0  0  0  0  0  0  0  0  0
  -15.5610   15.3901   25.7355 H   0  0  0  0  0  0  0  0  0  0  0  0
  -15.1577   17.4363   26.1268 C   0  0  0  0  0  0  0  0  0  0  0  0
  -14.1054   17.3248   26.1575 H   0  0  0  0  0  0  0  0  0  0  0  0
  1  2  1  0
  2  3  1  0
  2 29  2  0
  3  4  1  0
  3  5  2  0
  5  6  1  0
  5  7  1  0
  7  8  1  0
  7 27  2  0
  8  9  1  0
  8 24  1  0
  9 10  1  0
  9 11  1  0
  9 12  1  0
 12 13  1  0
 12 14  1  0
 12 15  1  0
 15 16  1  0
 15 21  1  0
 16 17  2  0
 16 18  1  0
 18 19  1  0
 18 20  1  0
 21 22  1  0
 21 23  1  0
 21 24  1  0
 24 25  1  0
 24 26  1  0
 27 28  1  0
 27 29  1  0
 29 30  1  0
M  END
$$$$
