
     RDKit          3D

 26 26  0  0  0  0  0  0  0  0999 V2000
  -23.3488   14.7487   31.4699 F   0  0  0  0  0  0  0  0  0  0  0  0
  -24.1526   15.2984   30.5462 C   0  0  0  0  0  0  0  0  0  0  0  0
  -24.4456   14.6541   29.3303 C   0  0  0  0  0  0  0  0  0  0  0  0
  -23.9377   13.3821   29.0211 N   0  0  0  0  0  0  0  0  0  0  0  0
  -23.6467   13.0855   27.5985 C   0  0  0  0  0  0  0  0  0  0  0  0
  -24.6057   12.0138   27.0477 C   0  0  0  0  0  0  0  0  0  0  0  0
  -25.6152   12.1631   27.4458 H   0  0  0  0  0  0  0  0  0  0  0  0
  -24.2866   11.0053   27.3286 H   0  0  0  0  0  0  0  0  0  0  0  0
  -24.6865   12.0599   25.6246 O   0  0  0  0  0  0  0  0  0  0  0  0
  -25.3701   11.4061   25.3922 H   0  0  0  0  0  0  0  0  0  0  0  0
  -22.1824   12.6904   27.3714 C   0  0  0  0  0  0  0  0  0  0  0  0
  -21.9630   12.6627   26.2980 H   0  0  0  0  0  0  0  0  0  0  0  0
  -21.9467   11.6988   27.7689 H   0  0  0  0  0  0  0  0  0  0  0  0
  -21.5043   13.4155   27.8319 H   0  0  0  0  0  0  0  0  0  0  0  0
  -23.7008   12.3990   30.0681 C   0  0  0  0  0  0  0  0  0  0  0  0
  -22.7958   12.6452   30.6332 H   0  0  0  0  0  0  0  0  0  0  0  0
  -23.5753   11.3877   29.6702 H   0  0  0  0  0  0  0  0  0  0  0  0
  -24.5553   12.3335   30.7522 H   0  0  0  0  0  0  0  0  0  0  0  0
  -25.2395   15.2262   28.4119 N   0  0  0  0  0  0  0  0  0  0  0  0
  -25.7426   16.4407   28.6656 C   0  0  0  0  0  0  0  0  0  0  0  0
  -26.3633   16.8798   27.9274 H   0  0  0  0  0  0  0  0  0  0  0  0
  -25.4781   17.1305   29.8504 C   0  0  0  0  0  0  0  0  0  0  0  0
  -25.8973   18.0898   30.0087 H   0  0  0  0  0  0  0  0  0  0  0  0
  -24.6646   16.5521   30.8213 C   0  0  0  0  0  0  0  0  0  0  0  0
  -24.4443   17.0438   31.7331 H   0  0  0  0  0  0  0  0  0  0  0  0
  -23.7809   13.9962   26.9992 H   0  0  0  0  0  0  0  0  0  0  0  0
  1  2  1  0
  2  3  1  0
  2 24  2  0
  3  4  1  0
  3 19  2  0
  4  5  1  0
  4 15  1  0
  5  6  1  0
  5 11  1  0
  5 26  1  0
  6  7  1  0
  6  8  1  0
  6  9  1  0
  9 10  1  0
 11 12  1  0
 11 13  1  0
 11 14  1  0
 15 16  1  0
 15 17  1  0
 15 18  1  0
 19 20  1  0
 20 21  1  0
 20 22  2  0
 22 23  1  0
 22 24  1  0
 24 25  1  0
M  END
$$$$
