
     RDKit          3D

 29 30  0  0  0  0  0  0  0  0999 V2000
  -21.7209   11.7448   30.3449 F   0  0  0  0  0  0  0  0  0  0  0  0
  -22.8247   11.4250   31.0375 C   0  0  0  0  0  0  0  0  0  0  0  0
  -23.9773   12.2001   30.8913 C   0  0  0  0  0  0  0  0  0  0  0  0
  -24.0142   13.3844   29.9586 C   0  0  0  0  0  0  0  0  0  0  0  0
  -23.1756   14.0598   30.1716 H   0  0  0  0  0  0  0  0  0  0  0  0
  -24.9146   13.9696   30.1899 H   0  0  0  0  0  0  0  0  0  0  0  0
  -24.0026   13.0061   28.4812 C   0  0  0  0  0  0  0  0  0  0  0  0
  -22.7106   12.4698   27.9521 C   0  0  0  0  0  0  0  0  0  0  0  0
  -22.5775   11.3417   27.5225 O   0  0  0  0  0  0  0  0  0  0  0  0
  -21.6437   13.3056   27.9840 N   0  0  0  0  0  0  0  0  0  0  0  0
  -21.7762   14.2195   28.3940 H   0  0  0  0  0  0  0  0  0  0  0  0
  -20.3426   12.9430   27.4820 C   0  0  0  0  0  0  0  0  0  0  0  0
  -19.9395   12.1291   28.0903 H   0  0  0  0  0  0  0  0  0  0  0  0
  -20.4312   12.6132   26.4439 H   0  0  0  0  0  0  0  0  0  0  0  0
  -19.6877   13.8157   27.5428 H   0  0  0  0  0  0  0  0  0  0  0  0
  -24.9230   13.7089   27.4787 C   0  0  0  0  0  0  0  0  0  0  0  0
  -24.5801   13.8144   26.4534 H   0  0  0  0  0  0  0  0  0  0  0  0
  -25.5598   14.5243   27.7995 H   0  0  0  0  0  0  0  0  0  0  0  0
  -25.2747   12.3393   27.9526 C   0  0  0  0  0  0  0  0  0  0  0  0
  -25.1726   11.5167   27.2531 H   0  0  0  0  0  0  0  0  0  0  0  0
  -26.1287   12.2399   28.6130 H   0  0  0  0  0  0  0  0  0  0  0  0
  -25.1023   11.8451   31.6365 C   0  0  0  0  0  0  0  0  0  0  0  0
  -25.9949   12.4106   31.5563 H   0  0  0  0  0  0  0  0  0  0  0  0
  -25.0618   10.7466   32.4961 C   0  0  0  0  0  0  0  0  0  0  0  0
  -25.9240   10.4858   33.0582 H   0  0  0  0  0  0  0  0  0  0  0  0
  -23.8991    9.9874   32.6229 C   0  0  0  0  0  0  0  0  0  0  0  0
  -23.8772    9.1539   33.2787 H   0  0  0  0  0  0  0  0  0  0  0  0
  -22.7682   10.3279   31.8882 C   0  0  0  0  0  0  0  0  0  0  0  0
  -21.8755    9.7645   31.9713 H   0  0  0  0  0  0  0  0  0  0  0  0
  1  2  1  0
  2  3  1  0
  2 28  2  0
  3  4  1  0
  3 22  2  0
  4  5  1  0
  4  6  1  0
  4  7  1  0
  7  8  1  0
  7 16  1  0
  7 19  1  0
  8  9  2  0
  8 10  1  0
 10 11  1  0
 10 12  1  0
 12 13  1  0
 12 14  1  0
 12 15  1  0
 16 17  1  0
 16 18  1  0
 16 19  1  0
 19 20  1  0
 19 21  1  0
 22 23  1  0
 22 24  1  0
 24 25  1  0
 24 26  2  0
 26 27  1  0
 26 28  1  0
 28 29  1  0
M  END
$$$$
