
     RDKit          3D

 30 31  0  0  0  0  0  0  0  0999 V2000
  -23.3242   12.4296   30.9549 N   0  0  0  0  0  0  0  0  0  0  0  0
  -24.2300   13.2137   31.8165 C   0  0  0  0  0  0  0  0  0  0  0  0
  -23.7534   13.4852   32.7625 H   0  0  0  0  0  0  0  0  0  0  0  0
  -24.4506   14.1781   31.3418 H   0  0  0  0  0  0  0  0  0  0  0  0
  -25.5444   12.4794   32.0344 C   0  0  0  0  0  0  0  0  0  0  0  0
  -25.3962   11.4877   32.4701 H   0  0  0  0  0  0  0  0  0  0  0  0
  -26.0779   12.3431   31.0873 H   0  0  0  0  0  0  0  0  0  0  0  0
  -26.1923   13.0535   32.7049 H   0  0  0  0  0  0  0  0  0  0  0  0
  -22.6702   11.3121   31.6650 C   0  0  0  0  0  0  0  0  0  0  0  0
  -21.5834   11.4457   31.6945 H   0  0  0  0  0  0  0  0  0  0  0  0
  -22.9837   11.2946   32.7167 H   0  0  0  0  0  0  0  0  0  0  0  0
  -23.0283    9.9787   31.0237 C   0  0  0  0  0  0  0  0  0  0  0  0
  -22.6984    9.9315   29.9815 H   0  0  0  0  0  0  0  0  0  0  0  0
  -24.1101    9.8132   31.0374 H   0  0  0  0  0  0  0  0  0  0  0  0
  -22.5515    9.1578   31.5682 H   0  0  0  0  0  0  0  0  0  0  0  0
  -23.0892   12.7109   29.5622 C   0  0  0  0  0  0  0  0  0  0  0  0
  -24.1113   13.2695   28.7113 N   0  0  0  0  0  0  0  0  0  0  0  0
  -25.3838   13.6219   28.9985 N   0  0  0  0  0  0  0  0  0  0  0  0
  -25.8171   14.0601   27.8568 C   0  0  0  0  0  0  0  0  0  0  0  0
  -26.8077   14.4234   27.7320 H   0  0  0  0  0  0  0  0  0  0  0  0
  -24.9419   14.0267   26.8464 N   0  0  0  0  0  0  0  0  0  0  0  0
  -23.8665   13.5296   27.3857 C   0  0  0  0  0  0  0  0  0  0  0  0
  -22.6467   13.2769   26.7812 N   0  0  0  0  0  0  0  0  0  0  0  0
  -21.6993   12.7760   27.5049 C   0  0  0  0  0  0  0  0  0  0  0  0
  -20.3645   12.4929   26.8723 C   0  0  0  0  0  0  0  0  0  0  0  0
  -19.6621   12.0655   27.5916 H   0  0  0  0  0  0  0  0  0  0  0  0
  -19.9469   13.4242   26.4792 H   0  0  0  0  0  0  0  0  0  0  0  0
  -20.4993   11.7871   26.0470 H   0  0  0  0  0  0  0  0  0  0  0  0
  -21.8748   12.4660   28.9482 C   0  0  0  0  0  0  0  0  0  0  0  0
  -21.0744   12.0492   29.4925 H   0  0  0  0  0  0  0  0  0  0  0  0
  1  2  1  0
  1  9  1  0
  1 16  1  0
  2  3  1  0
  2  4  1  0
  2  5  1  0
  5  6  1  0
  5  7  1  0
  5  8  1  0
  9 10  1  0
  9 11  1  0
  9 12  1  0
 12 13  1  0
 12 14  1  0
 12 15  1  0
 16 17  1  0
 16 29  2  0
 17 18  1  0
 17 22  1  0
 18 19  2  0
 19 20  1  0
 19 21  1  0
 21 22  2  0
 22 23  1  0
 23 24  2  0
 24 25  1  0
 24 29  1  0
 25 26  1  0
 25 27  1  0
 25 28  1  0
 29 30  1  0
M  END
$$$$
