
     RDKit          3D

 18 18  0  0  0  0  0  0  0  0999 V2000
  -25.9232   14.6861   26.8816 O   0  0  0  0  0  0  0  0  0  0  0  0
  -25.4302   14.1907   27.8848 C   0  0  0  0  0  0  0  0  0  0  0  0
  -25.5093   14.7293   29.1380 O   0  0  0  0  0  0  0  0  0  0  0  0
  -26.2048   15.9808   29.2503 C   0  0  0  0  0  0  0  0  0  0  0  0
  -26.3430   16.1754   30.3191 H   0  0  0  0  0  0  0  0  0  0  0  0
  -27.2025   15.9226   28.8011 H   0  0  0  0  0  0  0  0  0  0  0  0
  -25.3801   17.0926   28.6311 C   0  0  0  0  0  0  0  0  0  0  0  0
  -25.2285   16.9196   27.5609 H   0  0  0  0  0  0  0  0  0  0  0  0
  -24.3868   17.1362   29.0893 H   0  0  0  0  0  0  0  0  0  0  0  0
  -25.8724   18.0603   28.7628 H   0  0  0  0  0  0  0  0  0  0  0  0
  -24.6834   12.9463   27.8591 C   0  0  0  0  0  0  0  0  0  0  0  0
  -23.9137   12.4205   28.8547 C   0  0  0  0  0  0  0  0  0  0  0  0
  -23.6882   12.7704   29.8291 H   0  0  0  0  0  0  0  0  0  0  0  0
  -23.4267   11.2654   28.3723 N   0  0  0  0  0  0  0  0  0  0  0  0
  -22.7988   10.6189   28.8894 H   0  0  0  0  0  0  0  0  0  0  0  0
  -23.8511   11.0222   27.1023 N   0  0  0  0  0  0  0  0  0  0  0  0
  -24.6073   12.0399   26.8004 C   0  0  0  0  0  0  0  0  0  0  0  0
  -25.0955   12.1482   25.8644 H   0  0  0  0  0  0  0  0  0  0  0  0
  1  2  2  0
  2  3  1  0
  2 11  1  0
  3  4  1  0
  4  5  1  0
  4  6  1  0
  4  7  1  0
  7  8  1  0
  7  9  1  0
  7 10  1  0
 11 12  2  0
 11 17  1  0
 12 13  1  0
 12 14  1  0
 14 15  1  0
 14 16  1  0
 16 17  2  0
 17 18  1  0
M  END
$$$$
