
     RDKit          3D

 27 28  0  0  0  0  0  0  0  0999 V2000
  -18.8569   14.3001   23.5351 F   0  0  0  0  0  0  0  0  0  0  0  0
  -18.7307   13.7332   24.7465 C   0  0  0  0  0  0  0  0  0  0  0  0
  -18.1306   14.4536   25.7878 C   0  0  0  0  0  0  0  0  0  0  0  0
  -17.6824   15.7410   25.5261 N   0  0  0  0  0  0  0  0  0  0  0  0
  -17.6053   16.0122   24.5502 H   0  0  0  0  0  0  0  0  0  0  0  0
  -17.3201   16.7256   26.5258 C   0  0  0  0  0  0  0  0  0  0  0  0
  -18.0528   16.7046   27.3425 H   0  0  0  0  0  0  0  0  0  0  0  0
  -16.3495   16.4551   26.9612 H   0  0  0  0  0  0  0  0  0  0  0  0
  -17.2406   18.1325   26.0153 C   0  0  0  0  0  0  0  0  0  0  0  0
  -18.2028   19.0860   26.0821 C   0  0  0  0  0  0  0  0  0  0  0  0
  -19.5767   19.0838   26.6363 C   0  0  0  0  0  0  0  0  0  0  0  0
  -19.6320   18.4677   27.5383 H   0  0  0  0  0  0  0  0  0  0  0  0
  -20.2801   18.6801   25.9011 H   0  0  0  0  0  0  0  0  0  0  0  0
  -19.9008   20.0955   26.9028 H   0  0  0  0  0  0  0  0  0  0  0  0
  -17.6629   20.1740   25.4827 N   0  0  0  0  0  0  0  0  0  0  0  0
  -18.1437   21.0853   25.3618 H   0  0  0  0  0  0  0  0  0  0  0  0
  -16.4000   19.9496   25.0416 N   0  0  0  0  0  0  0  0  0  0  0  0
  -16.1552   18.7108   25.3650 C   0  0  0  0  0  0  0  0  0  0  0  0
  -15.2377   18.2266   25.1457 H   0  0  0  0  0  0  0  0  0  0  0  0
  -18.0033   13.8489   27.0419 C   0  0  0  0  0  0  0  0  0  0  0  0
  -17.5333   14.3676   27.8354 H   0  0  0  0  0  0  0  0  0  0  0  0
  -18.4832   12.5531   27.2351 C   0  0  0  0  0  0  0  0  0  0  0  0
  -18.3858   12.0934   28.1854 H   0  0  0  0  0  0  0  0  0  0  0  0
  -19.0846   11.8501   26.1879 C   0  0  0  0  0  0  0  0  0  0  0  0
  -19.4427   10.8657   26.3467 H   0  0  0  0  0  0  0  0  0  0  0  0
  -19.2081   12.4443   24.9320 C   0  0  0  0  0  0  0  0  0  0  0  0
  -19.6588   11.9218   24.1271 H   0  0  0  0  0  0  0  0  0  0  0  0
  1  2  1  0
  2  3  1  0
  2 26  2  0
  3  4  1  0
  3 20  2  0
  4  5  1  0
  4  6  1  0
  6  7  1  0
  6  8  1  0
  6  9  1  0
  9 10  2  0
  9 18  1  0
 10 11  1  0
 10 15  1  0
 11 12  1  0
 11 13  1  0
 11 14  1  0
 15 16  1  0
 15 17  1  0
 17 18  2  0
 18 19  1  0
 20 21  1  0
 20 22  1  0
 22 23  1  0
 22 24  2  0
 24 25  1  0
 24 26  1  0
 26 27  1  0
M  END
$$$$
