
     RDKit          3D

 27 27  0  0  0  0  0  0  0  0999 V2000
  -19.1618   12.0454   26.5564 S   0  0  0  0  0  0  0  0  0  0  0  0
  -18.3099   13.1277   26.9985 O   0  0  0  0  0  0  0  0  0  0  0  0
  -18.7538   10.6611   26.6543 O   0  0  0  0  0  0  0  0  0  0  0  0
  -19.5320   12.3381   24.9375 N   0  0  0  0  0  0  0  0  0  0  0  0
  -20.5098   12.1315   24.7205 H   0  0  0  0  0  0  0  0  0  0  0  0
  -18.8656   11.8926   24.3019 H   0  0  0  0  0  0  0  0  0  0  0  0
  -20.7367   12.2219   27.3153 C   0  0  0  0  0  0  0  0  0  0  0  0
  -21.6789   11.1913   27.2490 C   0  0  0  0  0  0  0  0  0  0  0  0
  -21.4263   10.2814   26.7614 H   0  0  0  0  0  0  0  0  0  0  0  0
  -22.9431   11.3495   27.8048 C   0  0  0  0  0  0  0  0  0  0  0  0
  -23.6478   10.5587   27.7415 H   0  0  0  0  0  0  0  0  0  0  0  0
  -23.2897   12.5438   28.4336 C   0  0  0  0  0  0  0  0  0  0  0  0
  -24.6800   12.7412   28.9719 C   0  0  0  0  0  0  0  0  0  0  0  0
  -24.7788   12.2977   29.9705 H   0  0  0  0  0  0  0  0  0  0  0  0
  -25.4218   12.2506   28.3299 H   0  0  0  0  0  0  0  0  0  0  0  0
  -24.9972   14.1508   29.0527 N   0  0  0  0  0  0  0  0  0  0  0  0
  -24.9512   14.5868   29.9576 H   0  0  0  0  0  0  0  0  0  0  0  0
  -25.3387   14.8644   27.9887 C   0  0  0  0  0  0  0  0  0  0  0  0
  -25.4052   14.3734   26.8716 O   0  0  0  0  0  0  0  0  0  0  0  0
  -25.6228   16.3148   28.2559 C   0  0  0  0  0  0  0  0  0  0  0  0
  -26.3546   16.4114   29.0631 H   0  0  0  0  0  0  0  0  0  0  0  0
  -24.6975   16.8232   28.5418 H   0  0  0  0  0  0  0  0  0  0  0  0
  -26.0274   16.7836   27.3547 H   0  0  0  0  0  0  0  0  0  0  0  0
  -22.3602   13.5790   28.4946 C   0  0  0  0  0  0  0  0  0  0  0  0
  -22.6191   14.4976   28.9589 H   0  0  0  0  0  0  0  0  0  0  0  0
  -21.0954   13.4203   27.9372 C   0  0  0  0  0  0  0  0  0  0  0  0
  -20.3971   14.2198   27.9772 H   0  0  0  0  0  0  0  0  0  0  0  0
  1  2  2  0
  1  3  2  0
  1  4  1  0
  1  7  1  0
  4  5  1  0
  4  6  1  0
  7  8  1  0
  7 26  2  0
  8  9  1  0
  8 10  2  0
 10 11  1  0
 10 12  1  0
 12 13  1  0
 12 24  2  0
 13 14  1  0
 13 15  1  0
 13 16  1  0
 16 17  1  0
 16 18  1  0
 18 19  2  0
 18 20  1  0
 20 21  1  0
 20 22  1  0
 20 23  1  0
 24 25  1  0
 24 26  1  0
 26 27  1  0
M  END
$$$$
