
     RDKit          3D

 27 27  0  0  0  0  0  0  0  0999 V2000
  -19.4045   11.9578   26.7063 S   0  0  0  0  0  0  0  0  0  0  0  0
  -19.0604   12.9897   25.7528 O   0  0  0  0  0  0  0  0  0  0  0  0
  -18.5050   11.5673   27.7697 O   0  0  0  0  0  0  0  0  0  0  0  0
  -19.7578   10.5662   25.8220 N   0  0  0  0  0  0  0  0  0  0  0  0
  -18.9239   10.1578   25.3932 H   0  0  0  0  0  0  0  0  0  0  0  0
  -20.5299   10.7103   25.1666 H   0  0  0  0  0  0  0  0  0  0  0  0
  -20.9708   12.3373   27.4065 C   0  0  0  0  0  0  0  0  0  0  0  0
  -21.2065   13.5855   27.9903 C   0  0  0  0  0  0  0  0  0  0  0  0
  -20.4396   14.3211   27.9812 H   0  0  0  0  0  0  0  0  0  0  0  0
  -22.4283   13.8685   28.5898 C   0  0  0  0  0  0  0  0  0  0  0  0
  -22.5889   14.8195   29.0322 H   0  0  0  0  0  0  0  0  0  0  0  0
  -23.4357   12.9060   28.6203 C   0  0  0  0  0  0  0  0  0  0  0  0
  -24.7310   13.1869   29.3308 C   0  0  0  0  0  0  0  0  0  0  0  0
  -25.3166   12.2674   29.4534 H   0  0  0  0  0  0  0  0  0  0  0  0
  -25.3503   13.8852   28.7544 H   0  0  0  0  0  0  0  0  0  0  0  0
  -24.4799   13.7591   30.6360 N   0  0  0  0  0  0  0  0  0  0  0  0
  -24.9216   14.6361   30.8523 H   0  0  0  0  0  0  0  0  0  0  0  0
  -23.7003   13.1698   31.5321 C   0  0  0  0  0  0  0  0  0  0  0  0
  -23.1461   12.1036   31.3096 O   0  0  0  0  0  0  0  0  0  0  0  0
  -23.5614   13.8997   32.8373 C   0  0  0  0  0  0  0  0  0  0  0  0
  -23.2635   14.9367   32.6575 H   0  0  0  0  0  0  0  0  0  0  0  0
  -24.5165   13.8835   33.3702 H   0  0  0  0  0  0  0  0  0  0  0  0
  -22.7981   13.4147   33.4519 H   0  0  0  0  0  0  0  0  0  0  0  0
  -23.2048   11.6566   28.0502 C   0  0  0  0  0  0  0  0  0  0  0  0
  -23.9604   10.9120   28.0805 H   0  0  0  0  0  0  0  0  0  0  0  0
  -21.9813   11.3738   27.4511 C   0  0  0  0  0  0  0  0  0  0  0  0
  -21.8095   10.4138   27.0300 H   0  0  0  0  0  0  0  0  0  0  0  0
  1  2  2  0
  1  3  2  0
  1  4  1  0
  1  7  1  0
  4  5  1  0
  4  6  1  0
  7  8  1  0
  7 26  2  0
  8  9  1  0
  8 10  2  0
 10 11  1  0
 10 12  1  0
 12 13  1  0
 12 24  2  0
 13 14  1  0
 13 15  1  0
 13 16  1  0
 16 17  1  0
 16 18  1  0
 18 19  2  0
 18 20  1  0
 20 21  1  0
 20 22  1  0
 20 23  1  0
 24 25  1  0
 24 26  1  0
 26 27  1  0
M  END
$$$$
