
     RDKit          3D

 32 33  0  0  0  0  0  0  0  0999 V2000
  -21.0251   14.3216   28.1031 O   0  0  0  0  0  0  0  0  0  0  0  0
  -20.9201   13.3108   27.4367 C   0  0  0  0  0  0  0  0  0  0  0  0
  -22.0046   12.5152   27.1978 N   0  0  0  0  0  0  0  0  0  0  0  0
  -21.7977   11.6886   26.6285 H   0  0  0  0  0  0  0  0  0  0  0  0
  -23.3112   12.6893   27.6280 C   0  0  0  0  0  0  0  0  0  0  0  0
  -23.8120   13.7129   28.3500 C   0  0  0  0  0  0  0  0  0  0  0  0
  -23.3618   14.5878   28.7395 H   0  0  0  0  0  0  0  0  0  0  0  0
  -25.1238   13.4164   28.5117 N   0  0  0  0  0  0  0  0  0  0  0  0
  -26.1239   14.1850   29.2222 C   0  0  0  0  0  0  0  0  0  0  0  0
  -27.0295   13.5721   29.2841 H   0  0  0  0  0  0  0  0  0  0  0  0
  -25.7576   14.3496   30.2415 H   0  0  0  0  0  0  0  0  0  0  0  0
  -26.4161   15.5131   28.5466 C   0  0  0  0  0  0  0  0  0  0  0  0
  -26.7968   15.3650   27.5306 H   0  0  0  0  0  0  0  0  0  0  0  0
  -25.5120   16.1280   28.4774 H   0  0  0  0  0  0  0  0  0  0  0  0
  -27.1663   16.0715   29.1143 H   0  0  0  0  0  0  0  0  0  0  0  0
  -25.4657   12.2395   27.9094 N   0  0  0  0  0  0  0  0  0  0  0  0
  -24.3542   11.8029   27.3752 C   0  0  0  0  0  0  0  0  0  0  0  0
  -24.2834   10.8983   26.8291 H   0  0  0  0  0  0  0  0  0  0  0  0
  -19.5937   12.8567   26.8456 C   0  0  0  0  0  0  0  0  0  0  0  0
  -19.2131   12.0583   27.4951 H   0  0  0  0  0  0  0  0  0  0  0  0
  -19.7382   12.3271   25.4128 C   0  0  0  0  0  0  0  0  0  0  0  0
  -19.7478   11.2321   25.3894 H   0  0  0  0  0  0  0  0  0  0  0  0
  -20.6660   12.6652   24.9388 H   0  0  0  0  0  0  0  0  0  0  0  0
  -18.5357   12.8800   24.6610 C   0  0  0  0  0  0  0  0  0  0  0  0
  -17.6621   12.2374   24.8218 H   0  0  0  0  0  0  0  0  0  0  0  0
  -18.7146   12.9500   23.5845 H   0  0  0  0  0  0  0  0  0  0  0  0
  -18.3111   14.2387   25.3006 C   0  0  0  0  0  0  0  0  0  0  0  0
  -19.0397   14.9628   24.9200 H   0  0  0  0  0  0  0  0  0  0  0  0
  -17.3092   14.6299   25.1038 H   0  0  0  0  0  0  0  0  0  0  0  0
  -18.5458   13.9781   26.7835 C   0  0  0  0  0  0  0  0  0  0  0  0
  -18.8373   14.8900   27.3140 H   0  0  0  0  0  0  0  0  0  0  0  0
  -17.6120   13.6227   27.2385 H   0  0  0  0  0  0  0  0  0  0  0  0
  1  2  2  0
  2  3  1  0
  2 19  1  0
  3  4  1  0
  3  5  1  0
  5  6  2  0
  5 17  1  0
  6  7  1  0
  6  8  1  0
  8  9  1  0
  8 16  1  0
  9 10  1  0
  9 11  1  0
  9 12  1  0
 12 13  1  0
 12 14  1  0
 12 15  1  0
 16 17  2  0
 17 18  1  0
 19 20  1  0
 19 21  1  0
 19 30  1  0
 21 22  1  0
 21 23  1  0
 21 24  1  0
 24 25  1  0
 24 26  1  0
 24 27  1  0
 27 28  1  0
 27 29  1  0
 27 30  1  0
 30 31  1  0
 30 32  1  0
M  END
$$$$
