
     RDKit          3D

 26 28  0  0  0  0  0  0  0  0999 V2000
  -19.3762   15.1279   24.9571 O   0  0  0  0  0  0  0  0  0  0  0  0
  -18.6911   15.2000   25.9724 C   0  0  0  0  0  0  0  0  0  0  0  0
  -18.5109   14.0544   26.7059 N   0  0  0  0  0  0  0  0  0  0  0  0
  -17.8502   14.0796   27.4879 H   0  0  0  0  0  0  0  0  0  0  0  0
  -19.1713   12.8203   26.4188 C   0  0  0  0  0  0  0  0  0  0  0  0
  -19.4234   12.7109   25.3660 H   0  0  0  0  0  0  0  0  0  0  0  0
  -20.1320   12.2110   27.4034 C   0  0  0  0  0  0  0  0  0  0  0  0
  -20.2852   12.7019   28.3570 H   0  0  0  0  0  0  0  0  0  0  0  0
  -21.0143   11.7207   27.0092 H   0  0  0  0  0  0  0  0  0  0  0  0
  -18.8011   11.5640   27.1583 C   0  0  0  0  0  0  0  0  0  0  0  0
  -18.7759   10.6407   26.5924 H   0  0  0  0  0  0  0  0  0  0  0  0
  -18.0497   11.6293   27.9359 H   0  0  0  0  0  0  0  0  0  0  0  0
  -18.0166   16.4456   26.3988 C   0  0  0  0  0  0  0  0  0  0  0  0
  -16.7372   16.3434   26.9777 C   0  0  0  0  0  0  0  0  0  0  0  0
  -16.2747   15.3995   27.1072 H   0  0  0  0  0  0  0  0  0  0  0  0
  -16.0910   17.5009   27.3779 C   0  0  0  0  0  0  0  0  0  0  0  0
  -14.8627   17.5722   27.9537 O   0  0  0  0  0  0  0  0  0  0  0  0
  -14.7310   18.9970   28.1397 C   0  0  0  0  0  0  0  0  0  0  0  0
  -14.5950   19.2001   29.2074 H   0  0  0  0  0  0  0  0  0  0  0  0
  -13.8412   19.3406   27.5998 H   0  0  0  0  0  0  0  0  0  0  0  0
  -15.8731   19.7437   27.6696 O   0  0  0  0  0  0  0  0  0  0  0  0
  -16.6660   18.7371   27.2156 C   0  0  0  0  0  0  0  0  0  0  0  0
  -17.9202   18.8802   26.6395 C   0  0  0  0  0  0  0  0  0  0  0  0
  -18.3449   19.8437   26.5150 H   0  0  0  0  0  0  0  0  0  0  0  0
  -18.5927   17.7290   26.2276 C   0  0  0  0  0  0  0  0  0  0  0  0
  -19.5435   17.8260   25.7689 H   0  0  0  0  0  0  0  0  0  0  0  0
  1  2  2  0
  2  3  1  0
  2 13  1  0
  3  4  1  0
  3  5  1  0
  5  6  1  0
  5  7  1  0
  5 10  1  0
  7  8  1  0
  7  9  1  0
  7 10  1  0
 10 11  1  0
 10 12  1  0
 13 14  1  0
 13 25  2  0
 14 15  1  0
 14 16  2  0
 16 17  1  0
 16 22  1  0
 17 18  1  0
 18 19  1  0
 18 20  1  0
 18 21  1  0
 21 22  1  0
 22 23  2  0
 23 24  1  0
 23 25  1  0
 25 26  1  0
M  END
$$$$
