
     RDKit          3D

 28 29  0  0  0  0  0  0  0  0999 V2000
  -25.2743   13.1203   25.8555 O   0  0  0  0  0  0  0  0  0  0  0  0
  -24.7373   12.7103   26.8712 C   0  0  0  0  0  0  0  0  0  0  0  0
  -24.5418   11.4158   27.0241 N   0  0  0  0  0  0  0  0  0  0  0  0
  -24.8558   10.8217   26.2747 H   0  0  0  0  0  0  0  0  0  0  0  0
  -24.1062   11.0472   27.8513 H   0  0  0  0  0  0  0  0  0  0  0  0
  -24.2629   13.5898   27.9974 C   0  0  0  0  0  0  0  0  0  0  0  0
  -23.2239   13.3311   28.2296 H   0  0  0  0  0  0  0  0  0  0  0  0
  -24.2734   14.6298   27.6496 H   0  0  0  0  0  0  0  0  0  0  0  0
  -25.1443   13.4234   29.2282 C   0  0  0  0  0  0  0  0  0  0  0  0
  -25.3317   12.3652   29.4408 H   0  0  0  0  0  0  0  0  0  0  0  0
  -26.1272   13.8878   29.0810 H   0  0  0  0  0  0  0  0  0  0  0  0
  -24.5445   14.0288   30.4023 N   0  0  0  0  0  0  0  0  0  0  0  0
  -24.6599   15.3387   30.8066 C   0  0  0  0  0  0  0  0  0  0  0  0
  -25.4408   16.3594   30.0587 C   0  0  0  0  0  0  0  0  0  0  0  0
  -25.4706   17.3007   30.6155 H   0  0  0  0  0  0  0  0  0  0  0  0
  -26.4715   16.0280   29.9046 H   0  0  0  0  0  0  0  0  0  0  0  0
  -24.9814   16.5588   29.0859 H   0  0  0  0  0  0  0  0  0  0  0  0
  -24.0134   15.5604   31.9024 N   0  0  0  0  0  0  0  0  0  0  0  0
  -23.4407   14.3567   32.2488 C   0  0  0  0  0  0  0  0  0  0  0  0
  -23.7628   13.3897   31.3183 C   0  0  0  0  0  0  0  0  0  0  0  0
  -23.3166   12.0634   31.4137 C   0  0  0  0  0  0  0  0  0  0  0  0
  -23.5749   11.3411   30.6829 H   0  0  0  0  0  0  0  0  0  0  0  0
  -22.5216   11.7295   32.4993 C   0  0  0  0  0  0  0  0  0  0  0  0
  -22.1636   10.7393   32.6094 H   0  0  0  0  0  0  0  0  0  0  0  0
  -22.1827   12.7049   33.4647 C   0  0  0  0  0  0  0  0  0  0  0  0
  -21.5730   12.4327   34.2893 H   0  0  0  0  0  0  0  0  0  0  0  0
  -22.6369   14.0112   33.3435 C   0  0  0  0  0  0  0  0  0  0  0  0
  -22.3876   14.7484   34.0590 H   0  0  0  0  0  0  0  0  0  0  0  0
  1  2  2  0
  2  3  1  0
  2  6  1  0
  3  4  1  0
  3  5  1  0
  6  7  1  0
  6  8  1  0
  6  9  1  0
  9 10  1  0
  9 11  1  0
  9 12  1  0
 12 13  1  0
 12 20  1  0
 13 14  1  0
 13 18  2  0
 14 15  1  0
 14 16  1  0
 14 17  1  0
 18 19  1  0
 19 20  1  0
 19 27  2  0
 20 21  2  0
 21 22  1  0
 21 23  1  0
 23 24  1  0
 23 25  2  0
 25 26  1  0
 25 27  1  0
 27 28  1  0
M  END
$$$$
