
     RDKit          3D

 27 28  0  0  0  0  0  0  0  0999 V2000
  -23.9290   13.3030   33.0789 O   0  0  0  0  0  0  0  0  0  0  0  0
  -22.9289   13.8324   33.9388 C   0  0  0  0  0  0  0  0  0  0  0  0
  -23.3914   14.6174   34.5456 H   0  0  0  0  0  0  0  0  0  0  0  0
  -22.1171   14.2923   33.3647 H   0  0  0  0  0  0  0  0  0  0  0  0
  -22.5485   13.0662   34.6222 H   0  0  0  0  0  0  0  0  0  0  0  0
  -23.5755   12.3038   32.1966 C   0  0  0  0  0  0  0  0  0  0  0  0
  -23.8134   12.5716   30.8410 C   0  0  0  0  0  0  0  0  0  0  0  0
  -23.4938   11.5701   29.9120 C   0  0  0  0  0  0  0  0  0  0  0  0
  -23.6933   11.6139   28.5115 N   0  0  0  0  0  0  0  0  0  0  0  0
  -23.2989   10.8237   27.9870 H   0  0  0  0  0  0  0  0  0  0  0  0
  -24.3187   12.4828   27.6741 C   0  0  0  0  0  0  0  0  0  0  0  0
  -24.2908   12.1280   26.5186 O   0  0  0  0  0  0  0  0  0  0  0  0
  -25.0408   13.6970   28.1445 C   0  0  0  0  0  0  0  0  0  0  0  0
  -25.2384   14.3186   27.2625 H   0  0  0  0  0  0  0  0  0  0  0  0
  -26.0096   13.4027   28.5631 H   0  0  0  0  0  0  0  0  0  0  0  0
  -24.1980   14.4819   29.1161 C   0  0  0  0  0  0  0  0  0  0  0  0
  -23.1399   14.4864   28.8256 H   0  0  0  0  0  0  0  0  0  0  0  0
  -24.5364   15.5247   29.1077 H   0  0  0  0  0  0  0  0  0  0  0  0
  -24.3688   13.9439   30.5239 C   0  0  0  0  0  0  0  0  0  0  0  0
  -25.4322   13.9529   30.7970 H   0  0  0  0  0  0  0  0  0  0  0  0
  -23.8696   14.6806   31.1669 H   0  0  0  0  0  0  0  0  0  0  0  0
  -22.9561   10.3491   30.3259 C   0  0  0  0  0  0  0  0  0  0  0  0
  -22.7203    9.6036   29.6108 H   0  0  0  0  0  0  0  0  0  0  0  0
  -22.7253   10.1087   31.6737 C   0  0  0  0  0  0  0  0  0  0  0  0
  -22.3147    9.1828   31.9851 H   0  0  0  0  0  0  0  0  0  0  0  0
  -23.0324   11.0850   32.6146 C   0  0  0  0  0  0  0  0  0  0  0  0
  -22.8533   10.8946   33.6394 H   0  0  0  0  0  0  0  0  0  0  0  0
  1  2  1  0
  1  6  1  0
  2  3  1  0
  2  4  1  0
  2  5  1  0
  6  7  1  0
  6 26  2  0
  7  8  2  0
  7 19  1  0
  8  9  1  0
  8 22  1  0
  9 10  1  0
  9 11  1  0
 11 12  2  0
 11 13  1  0
 13 14  1  0
 13 15  1  0
 13 16  1  0
 16 17  1  0
 16 18  1  0
 16 19  1  0
 19 20  1  0
 19 21  1  0
 22 23  1  0
 22 24  2  0
 24 25  1  0
 24 26  1  0
 26 27  1  0
M  END
$$$$
