
     RDKit          3D

 23 24  0  0  0  0  0  0  0  0999 V2000
  -24.5843   12.5096   27.4517 C   0  0  0  0  0  0  0  0  0  0  0  0
  -23.6583   12.3173   27.9976 H   0  0  0  0  0  0  0  0  0  0  0  0
  -24.4143   12.3524   26.3836 H   0  0  0  0  0  0  0  0  0  0  0  0
  -25.3778   11.8484   27.8104 H   0  0  0  0  0  0  0  0  0  0  0  0
  -25.0014   13.8682   27.6637 N   0  0  0  0  0  0  0  0  0  0  0  0
  -25.8663   14.4408   26.8141 N   0  0  0  0  0  0  0  0  0  0  0  0
  -26.0935   15.6625   27.2386 N   0  0  0  0  0  0  0  0  0  0  0  0
  -25.3548   15.8391   28.3543 C   0  0  0  0  0  0  0  0  0  0  0  0
  -24.6575   14.7242   28.6246 C   0  0  0  0  0  0  0  0  0  0  0  0
  -23.7104   14.5230   29.7525 C   0  0  0  0  0  0  0  0  0  0  0  0
  -23.8388   13.5278   30.1904 H   0  0  0  0  0  0  0  0  0  0  0  0
  -22.6896   14.5641   29.3515 H   0  0  0  0  0  0  0  0  0  0  0  0
  -23.8753   15.6553   30.7964 C   0  0  0  0  0  0  0  0  0  0  0  0
  -24.9318   15.2810   31.8406 C   0  0  0  0  0  0  0  0  0  0  0  0
  -24.7187   15.6379   33.0212 O   0  0  0  0  0  0  0  0  0  0  0  0
  -25.9554   14.6805   31.4465 O   0  0  0  0  0  0  0  0  0  0  0  0
  -24.1080   17.0364   30.1313 C   0  0  0  0  0  0  0  0  0  0  0  0
  -24.2210   17.8216   30.8877 H   0  0  0  0  0  0  0  0  0  0  0  0
  -23.2074   17.2907   29.5549 H   0  0  0  0  0  0  0  0  0  0  0  0
  -25.3251   17.0653   29.1791 C   0  0  0  0  0  0  0  0  0  0  0  0
  -25.2702   17.9548   28.5415 H   0  0  0  0  0  0  0  0  0  0  0  0
  -26.2544   17.1334   29.7552 H   0  0  0  0  0  0  0  0  0  0  0  0
  -22.9381   15.7172   31.3676 H   0  0  0  0  0  0  0  0  0  0  0  0
  1  2  1  0
  1  3  1  0
  1  4  1  0
  1  5  1  0
  5  6  1  0
  5  9  1  0
  6  7  2  0
  7  8  1  0
  8  9  2  0
  8 20  1  0
  9 10  1  0
 10 11  1  0
 10 12  1  0
 10 13  1  0
 13 14  1  0
 13 17  1  0
 13 23  1  0
 14 15  1  0
 14 16  2  0
 17 18  1  0
 17 19  1  0
 17 20  1  0
 20 21  1  0
 20 22  1  0
M  END
$$$$
