
     RDKit          3D

 26 28  0  0  0  0  0  0  0  0999 V2000
  -20.2316   12.2598   28.9683 O   0  0  0  0  0  0  0  0  0  0  0  0
  -21.1665   12.4173   28.1895 C   0  0  0  0  0  0  0  0  0  0  0  0
  -20.9500   12.1363   26.8639 N   0  0  0  0  0  0  0  0  0  0  0  0
  -21.7525   12.1550   26.2282 H   0  0  0  0  0  0  0  0  0  0  0  0
  -19.6717   11.7886   26.3286 C   0  0  0  0  0  0  0  0  0  0  0  0
  -19.5885   10.7311   26.0862 H   0  0  0  0  0  0  0  0  0  0  0  0
  -18.4194   12.4629   26.8192 C   0  0  0  0  0  0  0  0  0  0  0  0
  -18.5046   13.2505   27.5583 H   0  0  0  0  0  0  0  0  0  0  0  0
  -17.5259   11.8576   26.9158 H   0  0  0  0  0  0  0  0  0  0  0  0
  -18.9292   12.7458   25.4372 C   0  0  0  0  0  0  0  0  0  0  0  0
  -18.3898   12.3282   24.5958 H   0  0  0  0  0  0  0  0  0  0  0  0
  -19.3724   13.7152   25.2439 H   0  0  0  0  0  0  0  0  0  0  0  0
  -22.5144   12.8399   28.6286 C   0  0  0  0  0  0  0  0  0  0  0  0
  -23.3431   13.4913   27.6952 C   0  0  0  0  0  0  0  0  0  0  0  0
  -23.0069   13.6763   26.7082 H   0  0  0  0  0  0  0  0  0  0  0  0
  -24.6095   13.8890   28.0899 C   0  0  0  0  0  0  0  0  0  0  0  0
  -25.5239   14.5290   27.3155 O   0  0  0  0  0  0  0  0  0  0  0  0
  -26.6155   14.6760   28.2475 C   0  0  0  0  0  0  0  0  0  0  0  0
  -26.8373   15.7425   28.3623 H   0  0  0  0  0  0  0  0  0  0  0  0
  -27.4989   14.1751   27.8351 H   0  0  0  0  0  0  0  0  0  0  0  0
  -26.3354   14.1201   29.5496 O   0  0  0  0  0  0  0  0  0  0  0  0
  -25.0716   13.6557   29.3615 C   0  0  0  0  0  0  0  0  0  0  0  0
  -24.2895   13.0072   30.3066 C   0  0  0  0  0  0  0  0  0  0  0  0
  -24.6663   12.8287   31.2814 H   0  0  0  0  0  0  0  0  0  0  0  0
  -23.0090   12.5961   29.9341 C   0  0  0  0  0  0  0  0  0  0  0  0
  -22.4084   12.0830   30.6409 H   0  0  0  0  0  0  0  0  0  0  0  0
  1  2  2  0
  2  3  1  0
  2 13  1  0
  3  4  1  0
  3  5  1  0
  5  6  1  0
  5  7  1  0
  5 10  1  0
  7  8  1  0
  7  9  1  0
  7 10  1  0
 10 11  1  0
 10 12  1  0
 13 14  1  0
 13 25  2  0
 14 15  1  0
 14 16  2  0
 16 17  1  0
 16 22  1  0
 17 18  1  0
 18 19  1  0
 18 20  1  0
 18 21  1  0
 21 22  1  0
 22 23  2  0
 23 24  1  0
 23 25  1  0
 25 26  1  0
M  END
$$$$
