
     RDKit          3D

 32 33  0  0  0  0  0  0  0  0999 V2000
  -15.1636   16.7466   27.5388 O   0  0  0  0  0  0  0  0  0  0  0  0
  -15.6190   17.1621   26.4836 C   0  0  0  0  0  0  0  0  0  0  0  0
  -15.2051   18.2821   25.8345 O   0  0  0  0  0  0  0  0  0  0  0  0
  -14.1196   18.9642   26.4669 C   0  0  0  0  0  0  0  0  0  0  0  0
  -13.2452   18.3105   26.5367 H   0  0  0  0  0  0  0  0  0  0  0  0
  -14.4191   19.3194   27.4586 H   0  0  0  0  0  0  0  0  0  0  0  0
  -13.8597   19.8296   25.8519 H   0  0  0  0  0  0  0  0  0  0  0  0
  -16.6408   16.5930   25.7874 N   0  0  0  0  0  0  0  0  0  0  0  0
  -16.9258   17.1326   24.9647 H   0  0  0  0  0  0  0  0  0  0  0  0
  -17.3471   15.3992   26.0500 C   0  0  0  0  0  0  0  0  0  0  0  0
  -17.2343   14.6918   27.2492 C   0  0  0  0  0  0  0  0  0  0  0  0
  -16.5933   15.0317   28.0187 H   0  0  0  0  0  0  0  0  0  0  0  0
  -17.9679   13.5234   27.4250 C   0  0  0  0  0  0  0  0  0  0  0  0
  -17.8804   12.9863   28.3351 H   0  0  0  0  0  0  0  0  0  0  0  0
  -18.8094   13.0523   26.4153 C   0  0  0  0  0  0  0  0  0  0  0  0
  -19.5875   11.7696   26.6056 C   0  0  0  0  0  0  0  0  0  0  0  0
  -18.9827   11.0613   27.1873 H   0  0  0  0  0  0  0  0  0  0  0  0
  -19.7347   11.2749   25.6363 H   0  0  0  0  0  0  0  0  0  0  0  0
  -20.9237   11.9729   27.2738 C   0  0  0  0  0  0  0  0  0  0  0  0
  -21.8984   10.9822   27.2566 C   0  0  0  0  0  0  0  0  0  0  0  0
  -21.7141   10.0524   26.7859 H   0  0  0  0  0  0  0  0  0  0  0  0
  -23.1292   11.2122   27.8629 C   0  0  0  0  0  0  0  0  0  0  0  0
  -23.8791   10.4615   27.8532 H   0  0  0  0  0  0  0  0  0  0  0  0
  -23.4104   12.3644   28.4674 N   0  0  0  0  0  0  0  0  0  0  0  0
  -22.4931   13.3294   28.4942 C   0  0  0  0  0  0  0  0  0  0  0  0
  -22.7427   14.2398   28.9790 H   0  0  0  0  0  0  0  0  0  0  0  0
  -21.2420   13.1679   27.9076 C   0  0  0  0  0  0  0  0  0  0  0  0
  -20.5390   13.9599   27.9428 H   0  0  0  0  0  0  0  0  0  0  0  0
  -18.9038   13.7622   25.2156 C   0  0  0  0  0  0  0  0  0  0  0  0
  -19.5352   13.4134   24.4394 H   0  0  0  0  0  0  0  0  0  0  0  0
  -18.1747   14.9318   25.0294 C   0  0  0  0  0  0  0  0  0  0  0  0
  -18.2537   15.4682   24.1195 H   0  0  0  0  0  0  0  0  0  0  0  0
  1  2  2  0
  2  3  1  0
  2  8  1  0
  3  4  1  0
  4  5  1  0
  4  6  1  0
  4  7  1  0
  8  9  1  0
  8 10  1  0
 10 11  1  0
 10 31  2  0
 11 12  1  0
 11 13  2  0
 13 14  1  0
 13 15  1  0
 15 16  1  0
 15 29  2  0
 16 17  1  0
 16 18  1  0
 16 19  1  0
 19 20  1  0
 19 27  2  0
 20 21  1  0
 20 22  2  0
 22 23  1  0
 22 24  1  0
 24 25  2  0
 25 26  1  0
 25 27  1  0
 27 28  1  0
 29 30  1  0
 29 31  1  0
 31 32  1  0
M  END
$$$$
