
     RDKit          3D

 19 19  0  0  0  0  0  0  0  0999 V2000
  -26.2612   15.1954   28.3200 Br  0  0  0  0  0  0  0  0  0  0  0  0
  -24.9290   13.9731   27.8562 C   0  0  0  0  0  0  0  0  0  0  0  0
  -23.8043   13.6695   28.5391 C   0  0  0  0  0  0  0  0  0  0  0  0
  -23.4134   14.0354   29.4531 H   0  0  0  0  0  0  0  0  0  0  0  0
  -23.1656   12.7360   27.7997 N   0  0  0  0  0  0  0  0  0  0  0  0
  -21.9133   12.0667   28.0900 C   0  0  0  0  0  0  0  0  0  0  0  0
  -21.8060   12.0375   29.1800 H   0  0  0  0  0  0  0  0  0  0  0  0
  -22.0063   11.0397   27.7215 H   0  0  0  0  0  0  0  0  0  0  0  0
  -20.7319   12.7672   27.4363 C   0  0  0  0  0  0  0  0  0  0  0  0
  -20.5891   13.7742   27.8456 H   0  0  0  0  0  0  0  0  0  0  0  0
  -20.9107   12.8445   26.3583 H   0  0  0  0  0  0  0  0  0  0  0  0
  -19.5516   11.9860   27.6429 O   0  0  0  0  0  0  0  0  0  0  0  0
  -18.4196   12.5647   27.0070 C   0  0  0  0  0  0  0  0  0  0  0  0
  -17.5560   11.9196   27.1876 H   0  0  0  0  0  0  0  0  0  0  0  0
  -18.2107   13.5537   27.4249 H   0  0  0  0  0  0  0  0  0  0  0  0
  -18.5826   12.6383   25.9276 H   0  0  0  0  0  0  0  0  0  0  0  0
  -23.8480   12.4380   26.6588 N   0  0  0  0  0  0  0  0  0  0  0  0
  -24.9165   13.1921   26.7056 C   0  0  0  0  0  0  0  0  0  0  0  0
  -25.6626   13.1954   25.9532 H   0  0  0  0  0  0  0  0  0  0  0  0
  1  2  1  0
  2  3  2  0
  2 18  1  0
  3  4  1  0
  3  5  1  0
  5  6  1  0
  5 17  1  0
  6  7  1  0
  6  8  1  0
  6  9  1  0
  9 10  1  0
  9 11  1  0
  9 12  1  0
 12 13  1  0
 13 14  1  0
 13 15  1  0
 13 16  1  0
 17 18  2  0
 18 19  1  0
M  END
$$$$
