
     RDKit          3D

 26 26  0  0  0  0  0  0  0  0999 V2000
  -23.3277   14.1757   31.6545 F   0  0  0  0  0  0  0  0  0  0  0  0
  -23.1863   12.8837   31.3194 C   0  0  0  0  0  0  0  0  0  0  0  0
  -23.7050   12.3604   30.1208 C   0  0  0  0  0  0  0  0  0  0  0  0
  -24.3778   13.1651   29.1874 N   0  0  0  0  0  0  0  0  0  0  0  0
  -23.9664   13.0611   27.7674 C   0  0  0  0  0  0  0  0  0  0  0  0
  -24.6867   11.8953   27.0648 C   0  0  0  0  0  0  0  0  0  0  0  0
  -25.7069   11.7890   27.4492 H   0  0  0  0  0  0  0  0  0  0  0  0
  -24.1711   10.9445   27.2315 H   0  0  0  0  0  0  0  0  0  0  0  0
  -24.7701   12.0995   25.6558 O   0  0  0  0  0  0  0  0  0  0  0  0
  -25.3392   11.3781   25.3325 H   0  0  0  0  0  0  0  0  0  0  0  0
  -22.4451   12.9525   27.6060 C   0  0  0  0  0  0  0  0  0  0  0  0
  -22.1703   13.0662   26.5512 H   0  0  0  0  0  0  0  0  0  0  0  0
  -22.0545   11.9843   27.9328 H   0  0  0  0  0  0  0  0  0  0  0  0
  -21.9335   13.7381   28.1706 H   0  0  0  0  0  0  0  0  0  0  0  0
  -25.4460   14.0605   29.6074 C   0  0  0  0  0  0  0  0  0  0  0  0
  -26.3630   13.4993   29.8148 H   0  0  0  0  0  0  0  0  0  0  0  0
  -25.6841   14.8109   28.8478 H   0  0  0  0  0  0  0  0  0  0  0  0
  -25.1568   14.6343   30.4959 H   0  0  0  0  0  0  0  0  0  0  0  0
  -23.5671   11.0623   29.8097 N   0  0  0  0  0  0  0  0  0  0  0  0
  -22.9344   10.2590   30.6739 C   0  0  0  0  0  0  0  0  0  0  0  0
  -22.8390    9.2358   30.4147 H   0  0  0  0  0  0  0  0  0  0  0  0
  -22.4080   10.7213   31.8816 C   0  0  0  0  0  0  0  0  0  0  0  0
  -21.9155   10.0499   32.5354 H   0  0  0  0  0  0  0  0  0  0  0  0
  -22.5314   12.0662   32.2207 C   0  0  0  0  0  0  0  0  0  0  0  0
  -22.1423   12.4537   33.1264 H   0  0  0  0  0  0  0  0  0  0  0  0
  -24.2324   13.9871   27.2398 H   0  0  0  0  0  0  0  0  0  0  0  0
  1  2  1  0
  2  3  1  0
  2 24  2  0
  3  4  1  0
  3 19  2  0
  4  5  1  0
  4 15  1  0
  5  6  1  0
  5 11  1  0
  5 26  1  0
  6  7  1  0
  6  8  1  0
  6  9  1  0
  9 10  1  0
 11 12  1  0
 11 13  1  0
 11 14  1  0
 15 16  1  0
 15 17  1  0
 15 18  1  0
 19 20  1  0
 20 21  1  0
 20 22  2  0
 22 23  1  0
 22 24  1  0
 24 25  1  0
M  END
$$$$
