
     RDKit          3D

 25 26  0  0  0  0  0  0  0  0999 V2000
  -17.5594   13.0062   27.0261 O   0  0  0  0  0  0  0  0  0  0  0  0
  -18.0551   14.1148   27.2168 C   0  0  0  0  0  0  0  0  0  0  0  0
  -19.4114   14.2187   27.4079 N   0  0  0  0  0  0  0  0  0  0  0  0
  -19.7363   15.1838   27.5600 H   0  0  0  0  0  0  0  0  0  0  0  0
  -20.3447   13.1977   27.4140 C   0  0  0  0  0  0  0  0  0  0  0  0
  -21.5925   13.3738   27.8942 C   0  0  0  0  0  0  0  0  0  0  0  0
  -22.0766   14.2134   28.3167 H   0  0  0  0  0  0  0  0  0  0  0  0
  -22.1990   12.1717   27.7324 N   0  0  0  0  0  0  0  0  0  0  0  0
  -23.5478   11.8073   28.0813 C   0  0  0  0  0  0  0  0  0  0  0  0
  -24.0505   12.6636   28.5371 H   0  0  0  0  0  0  0  0  0  0  0  0
  -23.5089   10.9765   28.7903 H   0  0  0  0  0  0  0  0  0  0  0  0
  -24.0714   11.5094   27.1695 H   0  0  0  0  0  0  0  0  0  0  0  0
  -21.3752   11.2487   27.1683 N   0  0  0  0  0  0  0  0  0  0  0  0
  -20.2434   11.8784   26.9743 C   0  0  0  0  0  0  0  0  0  0  0  0
  -19.3872   11.4278   26.5431 H   0  0  0  0  0  0  0  0  0  0  0  0
  -17.3116   15.3577   27.2595 C   0  0  0  0  0  0  0  0  0  0  0  0
  -16.0587   15.4119   27.6374 N   0  0  0  0  0  0  0  0  0  0  0  0
  -15.6806   16.6848   27.5641 O   0  0  0  0  0  0  0  0  0  0  0  0
  -16.6905   17.4509   27.1395 C   0  0  0  0  0  0  0  0  0  0  0  0
  -16.4295   18.8927   27.0055 C   0  0  0  0  0  0  0  0  0  0  0  0
  -17.3219   19.4238   26.6610 H   0  0  0  0  0  0  0  0  0  0  0  0
  -15.6269   19.0711   26.2835 H   0  0  0  0  0  0  0  0  0  0  0  0
  -16.1291   19.3200   27.9667 H   0  0  0  0  0  0  0  0  0  0  0  0
  -17.7417   16.6463   26.9370 C   0  0  0  0  0  0  0  0  0  0  0  0
  -18.7053   16.9273   26.5992 H   0  0  0  0  0  0  0  0  0  0  0  0
  1  2  2  0
  2  3  1  0
  2 16  1  0
  3  4  1  0
  3  5  1  0
  5  6  2  0
  5 14  1  0
  6  7  1  0
  6  8  1  0
  8  9  1  0
  8 13  1  0
  9 10  1  0
  9 11  1  0
  9 12  1  0
 13 14  2  0
 14 15  1  0
 16 17  2  0
 16 24  1  0
 17 18  1  0
 18 19  1  0
 19 20  1  0
 19 24  2  0
 20 21  1  0
 20 22  1  0
 20 23  1  0
 24 25  1  0
M  END
$$$$
