
     RDKit          3D

 19 19  0  0  0  0  0  0  0  0999 V2000
  -19.5839   11.1055   26.0020 Br  0  0  0  0  0  0  0  0  0  0  0  0
  -19.4092   12.9151   26.4249 C   0  0  0  0  0  0  0  0  0  0  0  0
  -18.6083   13.8322   25.8413 C   0  0  0  0  0  0  0  0  0  0  0  0
  -17.9103   13.7566   25.0481 H   0  0  0  0  0  0  0  0  0  0  0  0
  -18.8372   14.9912   26.4972 N   0  0  0  0  0  0  0  0  0  0  0  0
  -18.2390   16.2893   26.2569 C   0  0  0  0  0  0  0  0  0  0  0  0
  -18.5224   16.5947   25.2435 H   0  0  0  0  0  0  0  0  0  0  0  0
  -18.6906   16.9869   26.9700 H   0  0  0  0  0  0  0  0  0  0  0  0
  -16.7273   16.2556   26.4222 C   0  0  0  0  0  0  0  0  0  0  0  0
  -16.2713   15.5031   25.7682 H   0  0  0  0  0  0  0  0  0  0  0  0
  -16.4842   16.0152   27.4630 H   0  0  0  0  0  0  0  0  0  0  0  0
  -16.1945   17.5486   26.1217 O   0  0  0  0  0  0  0  0  0  0  0  0
  -14.7744   17.5599   26.1834 C   0  0  0  0  0  0  0  0  0  0  0  0
  -14.4280   18.5721   25.9593 H   0  0  0  0  0  0  0  0  0  0  0  0
  -14.3543   16.8744   25.4418 H   0  0  0  0  0  0  0  0  0  0  0  0
  -14.4324   17.2863   27.1860 H   0  0  0  0  0  0  0  0  0  0  0  0
  -19.7589   14.8397   27.4890 N   0  0  0  0  0  0  0  0  0  0  0  0
  -20.1003   13.5777   27.4336 C   0  0  0  0  0  0  0  0  0  0  0  0
  -20.8109   13.1357   28.0837 H   0  0  0  0  0  0  0  0  0  0  0  0
  1  2  1  0
  2  3  2  0
  2 18  1  0
  3  4  1  0
  3  5  1  0
  5  6  1  0
  5 17  1  0
  6  7  1  0
  6  8  1  0
  6  9  1  0
  9 10  1  0
  9 11  1  0
  9 12  1  0
 12 13  1  0
 13 14  1  0
 13 15  1  0
 13 16  1  0
 17 18  2  0
 18 19  1  0
M  END
$$$$
