
     RDKit          3D

 27 28  0  0  0  0  0  0  0  0999 V2000
  -24.1755   12.8910   26.0861 F   0  0  0  0  0  0  0  0  0  0  0  0
  -23.7673   12.6746   27.3467 C   0  0  0  0  0  0  0  0  0  0  0  0
  -22.4002   12.5079   27.6462 C   0  0  0  0  0  0  0  0  0  0  0  0
  -21.3905   12.5571   26.6936 N   0  0  0  0  0  0  0  0  0  0  0  0
  -21.5716   12.1773   25.7719 H   0  0  0  0  0  0  0  0  0  0  0  0
  -20.0744   13.1291   26.9185 C   0  0  0  0  0  0  0  0  0  0  0  0
  -20.1809   14.0995   27.4187 H   0  0  0  0  0  0  0  0  0  0  0  0
  -19.5004   12.4799   27.5904 H   0  0  0  0  0  0  0  0  0  0  0  0
  -19.2733   13.3289   25.6682 C   0  0  0  0  0  0  0  0  0  0  0  0
  -18.4683   14.4224   25.3555 C   0  0  0  0  0  0  0  0  0  0  0  0
  -18.2125   15.6414   26.1598 C   0  0  0  0  0  0  0  0  0  0  0  0
  -17.8810   15.3738   27.1686 H   0  0  0  0  0  0  0  0  0  0  0  0
  -19.1258   16.2396   26.2450 H   0  0  0  0  0  0  0  0  0  0  0  0
  -17.4374   16.2697   25.7087 H   0  0  0  0  0  0  0  0  0  0  0  0
  -17.9057   14.2688   24.1900 N   0  0  0  0  0  0  0  0  0  0  0  0
  -18.3436   13.0663   23.7432 N   0  0  0  0  0  0  0  0  0  0  0  0
  -18.0585   12.6696   22.8282 H   0  0  0  0  0  0  0  0  0  0  0  0
  -19.1739   12.4729   24.6248 C   0  0  0  0  0  0  0  0  0  0  0  0
  -19.6098   11.5253   24.4459 H   0  0  0  0  0  0  0  0  0  0  0  0
  -22.0304   12.2950   28.9754 C   0  0  0  0  0  0  0  0  0  0  0  0
  -21.0082   12.1820   29.2254 H   0  0  0  0  0  0  0  0  0  0  0  0
  -23.0048   12.2327   29.9703 C   0  0  0  0  0  0  0  0  0  0  0  0
  -22.7184   12.0673   30.9780 H   0  0  0  0  0  0  0  0  0  0  0  0
  -24.3569   12.3879   29.6557 C   0  0  0  0  0  0  0  0  0  0  0  0
  -25.0888   12.3387   30.4212 H   0  0  0  0  0  0  0  0  0  0  0  0
  -24.7396   12.6124   28.3349 C   0  0  0  0  0  0  0  0  0  0  0  0
  -25.7619   12.7384   28.0836 H   0  0  0  0  0  0  0  0  0  0  0  0
  1  2  1  0
  2  3  1  0
  2 26  2  0
  3  4  1  0
  3 20  2  0
  4  5  1  0
  4  6  1  0
  6  7  1  0
  6  8  1  0
  6  9  1  0
  9 10  1  0
  9 18  2  0
 10 11  1  0
 10 15  2  0
 11 12  1  0
 11 13  1  0
 11 14  1  0
 15 16  1  0
 16 17  1  0
 16 18  1  0
 18 19  1  0
 20 21  1  0
 20 22  1  0
 22 23  1  0
 22 24  2  0
 24 25  1  0
 24 26  1  0
 26 27  1  0
M  END
$$$$
