
     RDKit          3D

 19 19  0  0  0  0  0  0  0  0999 V2000
  -23.0118   14.7192   29.4918 O   0  0  0  0  0  0  0  0  0  0  0  0
  -24.0884   14.4573   28.9603 C   0  0  0  0  0  0  0  0  0  0  0  0
  -25.1653   15.2770   29.2925 N   0  0  0  0  0  0  0  0  0  0  0  0
  -25.0739   16.1644   30.4439 C   0  0  0  0  0  0  0  0  0  0  0  0
  -25.9703   16.0377   31.0594 H   0  0  0  0  0  0  0  0  0  0  0  0
  -25.0203   17.1964   30.0854 H   0  0  0  0  0  0  0  0  0  0  0  0
  -24.1973   15.9558   31.0620 H   0  0  0  0  0  0  0  0  0  0  0  0
  -26.4121   15.3478   28.5420 C   0  0  0  0  0  0  0  0  0  0  0  0
  -26.7241   16.3943   28.4629 H   0  0  0  0  0  0  0  0  0  0  0  0
  -27.1776   14.7831   29.0819 H   0  0  0  0  0  0  0  0  0  0  0  0
  -26.2994   14.9549   27.5295 H   0  0  0  0  0  0  0  0  0  0  0  0
  -24.2439   13.3568   28.0266 C   0  0  0  0  0  0  0  0  0  0  0  0
  -25.3375   12.5450   27.9726 C   0  0  0  0  0  0  0  0  0  0  0  0
  -26.2198   12.5217   28.5578 H   0  0  0  0  0  0  0  0  0  0  0  0
  -25.1167   11.6908   26.9593 N   0  0  0  0  0  0  0  0  0  0  0  0
  -25.7690   10.9408   26.6612 H   0  0  0  0  0  0  0  0  0  0  0  0
  -23.9237   11.9210   26.3464 N   0  0  0  0  0  0  0  0  0  0  0  0
  -23.4105   12.9309   26.9899 C   0  0  0  0  0  0  0  0  0  0  0  0
  -22.4756   13.3632   26.7329 H   0  0  0  0  0  0  0  0  0  0  0  0
  1  2  2  0
  2  3  1  0
  2 12  1  0
  3  4  1  0
  3  8  1  0
  4  5  1  0
  4  6  1  0
  4  7  1  0
  8  9  1  0
  8 10  1  0
  8 11  1  0
 12 13  2  0
 12 18  1  0
 13 14  1  0
 13 15  1  0
 15 16  1  0
 15 17  1  0
 17 18  2  0
 18 19  1  0
M  END
$$$$
