
     RDKit          3D

 27 28  0  0  0  0  0  0  0  0999 V2000
  -17.6595   14.0400   27.9264 F   0  0  0  0  0  0  0  0  0  0  0  0
  -18.1644   13.5835   26.7691 C   0  0  0  0  0  0  0  0  0  0  0  0
  -18.0641   14.3431   25.5862 C   0  0  0  0  0  0  0  0  0  0  0  0
  -17.4491   15.5867   25.5180 N   0  0  0  0  0  0  0  0  0  0  0  0
  -17.5124   16.1147   24.6556 H   0  0  0  0  0  0  0  0  0  0  0  0
  -16.7168   16.2032   26.6104 C   0  0  0  0  0  0  0  0  0  0  0  0
  -17.4103   16.4326   27.4288 H   0  0  0  0  0  0  0  0  0  0  0  0
  -15.9758   15.4963   27.0026 H   0  0  0  0  0  0  0  0  0  0  0  0
  -16.0015   17.4641   26.2316 C   0  0  0  0  0  0  0  0  0  0  0  0
  -16.4771   18.7675   26.3605 C   0  0  0  0  0  0  0  0  0  0  0  0
  -17.7854   19.2258   26.8863 C   0  0  0  0  0  0  0  0  0  0  0  0
  -17.9730   18.7977   27.8766 H   0  0  0  0  0  0  0  0  0  0  0  0
  -18.5946   18.9140   26.2176 H   0  0  0  0  0  0  0  0  0  0  0  0
  -17.8254   20.3161   26.9802 H   0  0  0  0  0  0  0  0  0  0  0  0
  -15.5932   19.6295   25.9432 N   0  0  0  0  0  0  0  0  0  0  0  0
  -14.5343   18.8833   25.5443 N   0  0  0  0  0  0  0  0  0  0  0  0
  -13.6662   19.3009   25.1598 H   0  0  0  0  0  0  0  0  0  0  0  0
  -14.7558   17.5637   25.7122 C   0  0  0  0  0  0  0  0  0  0  0  0
  -14.0364   16.8298   25.4592 H   0  0  0  0  0  0  0  0  0  0  0  0
  -18.5982   13.8164   24.4087 C   0  0  0  0  0  0  0  0  0  0  0  0
  -18.5211   14.3628   23.5056 H   0  0  0  0  0  0  0  0  0  0  0  0
  -19.2299   12.5739   24.4228 C   0  0  0  0  0  0  0  0  0  0  0  0
  -19.6368   12.1800   23.5260 H   0  0  0  0  0  0  0  0  0  0  0  0
  -19.3319   11.8385   25.6060 C   0  0  0  0  0  0  0  0  0  0  0  0
  -19.8145   10.8944   25.6040 H   0  0  0  0  0  0  0  0  0  0  0  0
  -18.7934   12.3466   26.7863 C   0  0  0  0  0  0  0  0  0  0  0  0
  -18.8582   11.7956   27.6898 H   0  0  0  0  0  0  0  0  0  0  0  0
  1  2  1  0
  2  3  1  0
  2 26  2  0
  3  4  1  0
  3 20  2  0
  4  5  1  0
  4  6  1  0
  6  7  1  0
  6  8  1  0
  6  9  1  0
  9 10  1  0
  9 18  2  0
 10 11  1  0
 10 15  2  0
 11 12  1  0
 11 13  1  0
 11 14  1  0
 15 16  1  0
 16 17  1  0
 16 18  1  0
 18 19  1  0
 20 21  1  0
 20 22  1  0
 22 23  1  0
 22 24  2  0
 24 25  1  0
 24 26  1  0
 26 27  1  0
M  END
$$$$
