
     RDKit          3D

 24 25  0  0  0  0  0  0  0  0999 V2000
  -23.6190   12.0585   27.6722 S   0  0  0  0  0  0  0  0  0  0  0  0
  -23.3624   10.6515   27.9075 O   0  0  0  0  0  0  0  0  0  0  0  0
  -23.6942   12.5847   26.3191 O   0  0  0  0  0  0  0  0  0  0  0  0
  -22.4103   13.0250   28.5627 C   0  0  0  0  0  0  0  0  0  0  0  0
  -22.8860   13.9627   28.8630 H   0  0  0  0  0  0  0  0  0  0  0  0
  -22.1175   12.4575   29.4503 H   0  0  0  0  0  0  0  0  0  0  0  0
  -21.2386   13.2970   27.6860 C   0  0  0  0  0  0  0  0  0  0  0  0
  -20.9957   12.6030   26.5318 N   0  0  0  0  0  0  0  0  0  0  0  0
  -21.5486   11.8166   26.1623 H   0  0  0  0  0  0  0  0  0  0  0  0
  -19.8891   13.1273   25.9501 C   0  0  0  0  0  0  0  0  0  0  0  0
  -19.4968   14.1452   26.7944 C   0  0  0  0  0  0  0  0  0  0  0  0
  -20.3593   14.2257   27.8673 N   0  0  0  0  0  0  0  0  0  0  0  0
  -18.3621   14.9000   26.4692 C   0  0  0  0  0  0  0  0  0  0  0  0
  -18.0543   15.6815   27.1133 H   0  0  0  0  0  0  0  0  0  0  0  0
  -17.6612   14.6040   25.3069 C   0  0  0  0  0  0  0  0  0  0  0  0
  -16.8012   15.1675   25.0516 H   0  0  0  0  0  0  0  0  0  0  0  0
  -18.0842   13.5555   24.4571 C   0  0  0  0  0  0  0  0  0  0  0  0
  -17.5348   13.3467   23.5737 H   0  0  0  0  0  0  0  0  0  0  0  0
  -19.2053   12.8037   24.7703 C   0  0  0  0  0  0  0  0  0  0  0  0
  -19.5327   12.0148   24.1433 H   0  0  0  0  0  0  0  0  0  0  0  0
  -25.1363   12.4719   28.4949 C   0  0  0  0  0  0  0  0  0  0  0  0
  -25.0605   12.1759   29.5426 H   0  0  0  0  0  0  0  0  0  0  0  0
  -25.9474   11.9258   28.0089 H   0  0  0  0  0  0  0  0  0  0  0  0
  -25.3049   13.5473   28.4069 H   0  0  0  0  0  0  0  0  0  0  0  0
  1  2  2  0
  1  3  2  0
  1  4  1  0
  1 21  1  0
  4  5  1  0
  4  6  1  0
  4  7  1  0
  7  8  1  0
  7 12  2  0
  8  9  1  0
  8 10  1  0
 10 11  1  0
 10 19  2  0
 11 12  1  0
 11 13  2  0
 13 14  1  0
 13 15  1  0
 15 16  1  0
 15 17  2  0
 17 18  1  0
 17 19  1  0
 19 20  1  0
 21 22  1  0
 21 23  1  0
 21 24  1  0
M  END
$$$$
