
     RDKit          3D

 31 32  0  0  0  0  0  0  0  0999 V2000
  -20.9285   14.1880   28.0990 O   0  0  0  0  0  0  0  0  0  0  0  0
  -20.7886   13.3855   27.1853 C   0  0  0  0  0  0  0  0  0  0  0  0
  -21.6808   12.3568   27.1290 N   0  0  0  0  0  0  0  0  0  0  0  0
  -21.6740   11.7074   26.3336 H   0  0  0  0  0  0  0  0  0  0  0  0
  -22.6883   12.1544   28.1506 C   0  0  0  0  0  0  0  0  0  0  0  0
  -22.2279   12.3227   29.1311 H   0  0  0  0  0  0  0  0  0  0  0  0
  -23.0250   11.1123   28.1104 H   0  0  0  0  0  0  0  0  0  0  0  0
  -23.8137   13.0985   27.9200 C   0  0  0  0  0  0  0  0  0  0  0  0
  -24.2299   14.0907   28.7418 C   0  0  0  0  0  0  0  0  0  0  0  0
  -23.8764   14.4209   29.6826 H   0  0  0  0  0  0  0  0  0  0  0  0
  -25.2823   14.6690   28.1210 N   0  0  0  0  0  0  0  0  0  0  0  0
  -26.0901   15.7794   28.5799 C   0  0  0  0  0  0  0  0  0  0  0  0
  -27.0694   15.7028   28.0948 H   0  0  0  0  0  0  0  0  0  0  0  0
  -26.2393   15.6566   29.6578 H   0  0  0  0  0  0  0  0  0  0  0  0
  -25.4511   17.1214   28.2717 C   0  0  0  0  0  0  0  0  0  0  0  0
  -25.2960   17.2451   27.1944 H   0  0  0  0  0  0  0  0  0  0  0  0
  -24.4765   17.2174   28.7614 H   0  0  0  0  0  0  0  0  0  0  0  0
  -26.0913   17.9367   28.6219 H   0  0  0  0  0  0  0  0  0  0  0  0
  -25.5473   14.0774   26.9289 N   0  0  0  0  0  0  0  0  0  0  0  0
  -24.6582   13.1291   26.8170 C   0  0  0  0  0  0  0  0  0  0  0  0
  -24.6043   12.4817   25.9783 H   0  0  0  0  0  0  0  0  0  0  0  0
  -19.7460   13.5213   26.1500 C   0  0  0  0  0  0  0  0  0  0  0  0
  -18.6791   14.3937   26.3996 C   0  0  0  0  0  0  0  0  0  0  0  0
  -18.6449   14.9340   27.3133 H   0  0  0  0  0  0  0  0  0  0  0  0
  -17.6896   14.5830   25.5245 N   0  0  0  0  0  0  0  0  0  0  0  0
  -17.6954   13.9229   24.3682 C   0  0  0  0  0  0  0  0  0  0  0  0
  -16.8948   14.0947   23.6931 H   0  0  0  0  0  0  0  0  0  0  0  0
  -18.7130   13.0299   24.0432 C   0  0  0  0  0  0  0  0  0  0  0  0
  -18.6876   12.5152   23.1185 H   0  0  0  0  0  0  0  0  0  0  0  0
  -19.7537   12.8186   24.9384 C   0  0  0  0  0  0  0  0  0  0  0  0
  -20.5256   12.1332   24.7029 H   0  0  0  0  0  0  0  0  0  0  0  0
  1  2  2  0
  2  3  1  0
  2 22  1  0
  3  4  1  0
  3  5  1  0
  5  6  1  0
  5  7  1  0
  5  8  1  0
  8  9  2  0
  8 20  1  0
  9 10  1  0
  9 11  1  0
 11 12  1  0
 11 19  1  0
 12 13  1  0
 12 14  1  0
 12 15  1  0
 15 16  1  0
 15 17  1  0
 15 18  1  0
 19 20  2  0
 20 21  1  0
 22 23  1  0
 22 30  2  0
 23 24  1  0
 23 25  2  0
 25 26  1  0
 26 27  1  0
 26 28  2  0
 28 29  1  0
 28 30  1  0
 30 31  1  0
M  END
$$$$
