
     RDKit          3D

 23 23  0  0  0  0  0  0  0  0999 V2000
  -23.4754   11.5945   27.6638 S   0  0  0  0  0  0  0  0  0  0  0  0
  -23.1062   10.3606   28.3390 O   0  0  0  0  0  0  0  0  0  0  0  0
  -24.0513   11.5660   26.3329 O   0  0  0  0  0  0  0  0  0  0  0  0
  -22.0390   12.6343   27.6246 C   0  0  0  0  0  0  0  0  0  0  0  0
  -21.6577   12.7539   28.6408 H   0  0  0  0  0  0  0  0  0  0  0  0
  -22.3062   13.6014   27.1942 H   0  0  0  0  0  0  0  0  0  0  0  0
  -21.2860   12.1486   27.0013 H   0  0  0  0  0  0  0  0  0  0  0  0
  -24.5917   12.4849   28.7111 C   0  0  0  0  0  0  0  0  0  0  0  0
  -24.6822   12.2585   30.0955 C   0  0  0  0  0  0  0  0  0  0  0  0
  -23.8805   11.2864   30.6884 N   0  0  0  0  0  0  0  0  0  0  0  0
  -23.3490   10.6710   30.0556 H   0  0  0  0  0  0  0  0  0  0  0  0
  -23.7568   11.0503   32.1065 C   0  0  0  0  0  0  0  0  0  0  0  0
  -23.4062   11.9474   32.6276 H   0  0  0  0  0  0  0  0  0  0  0  0
  -23.0244   10.2560   32.2817 H   0  0  0  0  0  0  0  0  0  0  0  0
  -24.7086   10.7251   32.5377 H   0  0  0  0  0  0  0  0  0  0  0  0
  -25.5542   13.0266   30.8785 C   0  0  0  0  0  0  0  0  0  0  0  0
  -25.6071   12.8824   31.9247 H   0  0  0  0  0  0  0  0  0  0  0  0
  -26.3597   13.9882   30.2832 C   0  0  0  0  0  0  0  0  0  0  0  0
  -27.0252   14.5627   30.8752 H   0  0  0  0  0  0  0  0  0  0  0  0
  -26.2984   14.1979   28.9094 C   0  0  0  0  0  0  0  0  0  0  0  0
  -26.9205   14.9279   28.4556 H   0  0  0  0  0  0  0  0  0  0  0  0
  -25.4173   13.4521   28.1323 C   0  0  0  0  0  0  0  0  0  0  0  0
  -25.3718   13.6207   27.0861 H   0  0  0  0  0  0  0  0  0  0  0  0
  1  2  2  0
  1  3  2  0
  1  4  1  0
  1  8  1  0
  4  5  1  0
  4  6  1  0
  4  7  1  0
  8  9  1  0
  8 22  2  0
  9 10  1  0
  9 16  2  0
 10 11  1  0
 10 12  1  0
 12 13  1  0
 12 14  1  0
 12 15  1  0
 16 17  1  0
 16 18  1  0
 18 19  1  0
 18 20  2  0
 20 21  1  0
 20 22  1  0
 22 23  1  0
M  END
$$$$
