
     RDKit          3D

 16 17  0  0  0  0  0  0  0  0999 V2000
  -22.6093   11.8817   29.7409 Br  0  0  0  0  0  0  0  0  0  0  0  0
  -23.7397   12.5577   28.3781 C   0  0  0  0  0  0  0  0  0  0  0  0
  -24.2523   13.8838   28.3788 C   0  0  0  0  0  0  0  0  0  0  0  0
  -25.0868   14.2636   27.3000 C   0  0  0  0  0  0  0  0  0  0  0  0
  -25.3932   13.3976   26.2915 N   0  0  0  0  0  0  0  0  0  0  0  0
  -24.9155   12.1865   26.3057 C   0  0  0  0  0  0  0  0  0  0  0  0
  -25.1707   11.5344   25.5063 H   0  0  0  0  0  0  0  0  0  0  0  0
  -24.0791   11.7262   27.3406 C   0  0  0  0  0  0  0  0  0  0  0  0
  -23.7157   10.7311   27.3062 H   0  0  0  0  0  0  0  0  0  0  0  0
  -25.6236   15.5153   27.2180 N   0  0  0  0  0  0  0  0  0  0  0  0
  -25.3712   16.3940   28.1478 C   0  0  0  0  0  0  0  0  0  0  0  0
  -25.8032   17.3605   28.0575 H   0  0  0  0  0  0  0  0  0  0  0  0
  -24.5497   16.0967   29.2560 C   0  0  0  0  0  0  0  0  0  0  0  0
  -24.3747   16.8462   29.9846 H   0  0  0  0  0  0  0  0  0  0  0  0
  -23.9876   14.8520   29.3819 C   0  0  0  0  0  0  0  0  0  0  0  0
  -23.3707   14.6264   30.2131 H   0  0  0  0  0  0  0  0  0  0  0  0
  1  2  1  0
  2  3  1  0
  2  8  2  0
  3  4  1  0
  3 15  2  0
  4  5  1  0
  4 10  2  0
  5  6  2  0
  6  7  1  0
  6  8  1  0
  8  9  1  0
 10 11  1  0
 11 12  1  0
 11 13  2  0
 13 14  1  0
 13 15  1  0
 15 16  1  0
M  END
$$$$
