
     RDKit          3D

 23 23  0  0  0  0  0  0  0  0999 V2000
  -14.6806   17.9105   25.2638 S   0  0  0  0  0  0  0  0  0  0  0  0
  -14.5870   16.4731   25.4632 O   0  0  0  0  0  0  0  0  0  0  0  0
  -14.3212   18.5060   23.9910 O   0  0  0  0  0  0  0  0  0  0  0  0
  -13.7185   18.6913   26.5329 C   0  0  0  0  0  0  0  0  0  0  0  0
  -14.0552   18.3320   27.5075 H   0  0  0  0  0  0  0  0  0  0  0  0
  -13.8342   19.7743   26.4576 H   0  0  0  0  0  0  0  0  0  0  0  0
  -12.6722   18.4206   26.3798 H   0  0  0  0  0  0  0  0  0  0  0  0
  -16.3355   18.4143   25.6423 C   0  0  0  0  0  0  0  0  0  0  0  0
  -17.3535   17.5022   25.9707 C   0  0  0  0  0  0  0  0  0  0  0  0
  -17.0756   16.1377   25.9905 N   0  0  0  0  0  0  0  0  0  0  0  0
  -16.1034   15.8571   25.7969 H   0  0  0  0  0  0  0  0  0  0  0  0
  -18.0372   15.0884   26.2276 C   0  0  0  0  0  0  0  0  0  0  0  0
  -18.5235   15.2102   27.2013 H   0  0  0  0  0  0  0  0  0  0  0  0
  -17.5275   14.1198   26.2291 H   0  0  0  0  0  0  0  0  0  0  0  0
  -18.7967   15.0625   25.4401 H   0  0  0  0  0  0  0  0  0  0  0  0
  -18.6331   17.9659   26.3038 C   0  0  0  0  0  0  0  0  0  0  0  0
  -19.3963   17.2882   26.5802 H   0  0  0  0  0  0  0  0  0  0  0  0
  -18.9099   19.3262   26.2734 C   0  0  0  0  0  0  0  0  0  0  0  0
  -19.8806   19.6752   26.5172 H   0  0  0  0  0  0  0  0  0  0  0  0
  -17.9166   20.2336   25.9202 C   0  0  0  0  0  0  0  0  0  0  0  0
  -18.1325   21.2720   25.8901 H   0  0  0  0  0  0  0  0  0  0  0  0
  -16.6387   19.7779   25.6104 C   0  0  0  0  0  0  0  0  0  0  0  0
  -15.8845   20.4755   25.3470 H   0  0  0  0  0  0  0  0  0  0  0  0
  1  2  2  0
  1  3  2  0
  1  4  1  0
  1  8  1  0
  4  5  1  0
  4  6  1  0
  4  7  1  0
  8  9  1  0
  8 22  2  0
  9 10  1  0
  9 16  2  0
 10 11  1  0
 10 12  1  0
 12 13  1  0
 12 14  1  0
 12 15  1  0
 16 17  1  0
 16 18  1  0
 18 19  1  0
 18 20  2  0
 20 21  1  0
 20 22  1  0
 22 23  1  0
M  END
$$$$
