
     RDKit          3D

 23 24  0  0  0  0  0  0  0  0999 V2000
  -22.4807   12.7750   29.4189 O   0  0  0  0  0  0  0  0  0  0  0  0
  -23.6575   13.0825   29.2568 C   0  0  0  0  0  0  0  0  0  0  0  0
  -24.3447   13.5449   30.3673 N   0  0  0  0  0  0  0  0  0  0  0  0
  -25.7620   13.8741   30.4735 C   0  0  0  0  0  0  0  0  0  0  0  0
  -26.0642   14.6023   29.7199 H   0  0  0  0  0  0  0  0  0  0  0  0
  -26.3345   12.9508   30.3361 H   0  0  0  0  0  0  0  0  0  0  0  0
  -25.9300   14.4414   31.8782 C   0  0  0  0  0  0  0  0  0  0  0  0
  -25.7678   15.5263   31.8638 H   0  0  0  0  0  0  0  0  0  0  0  0
  -26.9223   14.2503   32.2931 H   0  0  0  0  0  0  0  0  0  0  0  0
  -24.8142   13.7682   32.6623 C   0  0  0  0  0  0  0  0  0  0  0  0
  -25.1180   12.7518   32.9402 H   0  0  0  0  0  0  0  0  0  0  0  0
  -24.5437   14.3089   33.5733 H   0  0  0  0  0  0  0  0  0  0  0  0
  -23.6801   13.7155   31.6520 C   0  0  0  0  0  0  0  0  0  0  0  0
  -22.9766   12.9028   31.8536 H   0  0  0  0  0  0  0  0  0  0  0  0
  -23.1285   14.6624   31.6182 H   0  0  0  0  0  0  0  0  0  0  0  0
  -24.3343   12.9159   27.9849 C   0  0  0  0  0  0  0  0  0  0  0  0
  -24.3319   11.7547   27.2705 C   0  0  0  0  0  0  0  0  0  0  0  0
  -23.8973   10.8103   27.4744 H   0  0  0  0  0  0  0  0  0  0  0  0
  -25.0271   12.0071   26.1500 N   0  0  0  0  0  0  0  0  0  0  0  0
  -25.2058   11.3193   25.3931 H   0  0  0  0  0  0  0  0  0  0  0  0
  -25.4769   13.2918   26.1037 N   0  0  0  0  0  0  0  0  0  0  0  0
  -25.0468   13.8328   27.2077 C   0  0  0  0  0  0  0  0  0  0  0  0
  -25.2174   14.8490   27.4573 H   0  0  0  0  0  0  0  0  0  0  0  0
  1  2  2  0
  2  3  1  0
  2 16  1  0
  3  4  1  0
  3 13  1  0
  4  5  1  0
  4  6  1  0
  4  7  1  0
  7  8  1  0
  7  9  1  0
  7 10  1  0
 10 11  1  0
 10 12  1  0
 10 13  1  0
 13 14  1  0
 13 15  1  0
 16 17  2  0
 16 22  1  0
 17 18  1  0
 17 19  1  0
 19 20  1  0
 19 21  1  0
 21 22  2  0
 22 23  1  0
M  END
$$$$
