
     RDKit          3D

 22 22  0  0  0  0  0  0  0  0999 V2000
  -19.6674   11.8696   23.7340 O   0  0  0  0  0  0  0  0  0  0  0  0
  -20.4634   11.9337   24.2897 H   0  0  0  0  0  0  0  0  0  0  0  0
  -18.7973   12.9261   24.1300 C   0  0  0  0  0  0  0  0  0  0  0  0
  -17.9109   12.9143   23.4864 H   0  0  0  0  0  0  0  0  0  0  0  0
  -19.3322   13.8690   23.9778 H   0  0  0  0  0  0  0  0  0  0  0  0
  -18.4254   12.7749   25.6036 C   0  0  0  0  0  0  0  0  0  0  0  0
  -17.9316   11.8057   25.7458 H   0  0  0  0  0  0  0  0  0  0  0  0
  -17.7066   13.5532   25.8908 H   0  0  0  0  0  0  0  0  0  0  0  0
  -19.6105   12.8543   26.5138 C   0  0  0  0  0  0  0  0  0  0  0  0
  -20.4945   11.8701   26.7926 C   0  0  0  0  0  0  0  0  0  0  0  0
  -20.5632   10.8701   26.4531 H   0  0  0  0  0  0  0  0  0  0  0  0
  -21.3814   12.4021   27.6620 N   0  0  0  0  0  0  0  0  0  0  0  0
  -22.5240   11.7587   28.2732 C   0  0  0  0  0  0  0  0  0  0  0  0
  -22.5831   10.7384   27.8794 H   0  0  0  0  0  0  0  0  0  0  0  0
  -22.3327   11.6936   29.3497 H   0  0  0  0  0  0  0  0  0  0  0  0
  -23.8166   12.5065   27.9990 C   0  0  0  0  0  0  0  0  0  0  0  0
  -24.0137   12.5721   26.9227 H   0  0  0  0  0  0  0  0  0  0  0  0
  -23.7750   13.5277   28.3926 H   0  0  0  0  0  0  0  0  0  0  0  0
  -24.6603   11.9926   28.4699 H   0  0  0  0  0  0  0  0  0  0  0  0
  -21.0951   13.6973   27.9450 N   0  0  0  0  0  0  0  0  0  0  0  0
  -20.0225   13.9621   27.2495 C   0  0  0  0  0  0  0  0  0  0  0  0
  -19.5411   14.9093   27.2529 H   0  0  0  0  0  0  0  0  0  0  0  0
  1  2  1  0
  1  3  1  0
  3  4  1  0
  3  5  1  0
  3  6  1  0
  6  7  1  0
  6  8  1  0
  6  9  1  0
  9 10  2  0
  9 21  1  0
 10 11  1  0
 10 12  1  0
 12 13  1  0
 12 20  1  0
 13 14  1  0
 13 15  1  0
 13 16  1  0
 16 17  1  0
 16 18  1  0
 16 19  1  0
 20 21  2  0
 21 22  1  0
M  END
$$$$
