
     RDKit          3D

 16 16  0  0  0  0  0  0  0  0999 V2000
  -18.5407   12.3319   28.0644 Br  0  0  0  0  0  0  0  0  0  0  0  0
  -20.3471   12.4378   27.6040 C   0  0  0  0  0  0  0  0  0  0  0  0
  -21.4189   12.1880   28.3845 C   0  0  0  0  0  0  0  0  0  0  0  0
  -21.5009   11.8925   29.3975 H   0  0  0  0  0  0  0  0  0  0  0  0
  -22.5006   12.4042   27.6010 N   0  0  0  0  0  0  0  0  0  0  0  0
  -23.9004   12.2657   27.9512 C   0  0  0  0  0  0  0  0  0  0  0  0
  -24.1152   11.1921   27.9906 H   0  0  0  0  0  0  0  0  0  0  0  0
  -24.0272   12.6847   28.9556 H   0  0  0  0  0  0  0  0  0  0  0  0
  -24.8069   12.9567   26.9448 C   0  0  0  0  0  0  0  0  0  0  0  0
  -24.4017   13.9418   26.6967 H   0  0  0  0  0  0  0  0  0  0  0  0
  -25.8259   13.0788   27.3269 H   0  0  0  0  0  0  0  0  0  0  0  0
  -24.8570   12.1984   25.7400 O   0  0  0  0  0  0  0  0  0  0  0  0
  -25.2956   11.3551   25.9498 H   0  0  0  0  0  0  0  0  0  0  0  0
  -22.1481   12.7905   26.3442 N   0  0  0  0  0  0  0  0  0  0  0  0
  -20.8405   12.8053   26.3570 C   0  0  0  0  0  0  0  0  0  0  0  0
  -20.2511   13.0672   25.5166 H   0  0  0  0  0  0  0  0  0  0  0  0
  1  2  1  0
  2  3  2  0
  2 15  1  0
  3  4  1  0
  3  5  1  0
  5  6  1  0
  5 14  1  0
  6  7  1  0
  6  8  1  0
  6  9  1  0
  9 10  1  0
  9 11  1  0
  9 12  1  0
 12 13  1  0
 14 15  2  0
 15 16  1  0
M  END
$$$$
