
     RDKit          3D

 16 16  0  0  0  0  0  0  0  0999 V2000
  -26.6019   15.8962   27.3079 O   0  0  0  0  0  0  0  0  0  0  0  0
  -26.5180   14.6466   27.9931 C   0  0  0  0  0  0  0  0  0  0  0  0
  -26.3623   14.8241   29.0643 H   0  0  0  0  0  0  0  0  0  0  0  0
  -27.4473   14.0811   27.8601 H   0  0  0  0  0  0  0  0  0  0  0  0
  -25.3579   13.8989   27.4295 C   0  0  0  0  0  0  0  0  0  0  0  0
  -23.9158   13.6979   28.3318 S   0  0  0  0  0  0  0  0  0  0  0  0
  -23.3122   12.8547   26.9834 C   0  0  0  0  0  0  0  0  0  0  0  0
  -22.0695   12.3442   27.0037 N   0  0  0  0  0  0  0  0  0  0  0  0
  -21.4595   12.4377   27.8062 H   0  0  0  0  0  0  0  0  0  0  0  0
  -21.7102   11.8426   26.2003 H   0  0  0  0  0  0  0  0  0  0  0  0
  -24.1176   12.7531   25.9728 N   0  0  0  0  0  0  0  0  0  0  0  0
  -25.3210   13.3708   26.2432 N   0  0  0  0  0  0  0  0  0  0  0  0
  -25.7711   16.8792   27.9092 C   0  0  0  0  0  0  0  0  0  0  0  0
  -25.8760   17.8104   27.3454 H   0  0  0  0  0  0  0  0  0  0  0  0
  -24.7229   16.5675   27.8762 H   0  0  0  0  0  0  0  0  0  0  0  0
  -26.0791   17.0608   28.9433 H   0  0  0  0  0  0  0  0  0  0  0  0
  1  2  1  0
  1 13  1  0
  2  3  1  0
  2  4  1  0
  2  5  1  0
  5  6  1  0
  5 12  2  0
  6  7  1  0
  7  8  1  0
  7 11  2  0
  8  9  1  0
  8 10  1  0
 11 12  1  0
 13 14  1  0
 13 15  1  0
 13 16  1  0
M  END
$$$$
