MD_2_clus0
  MOE2019           3D

 18 18  0  0  0  0  0  0  0  0999 V2000
  -18.6247   13.4523   24.3571 C   0  0  0  0  0  0  0  0  0  0  0  0
  -18.9020   12.0243   24.8698 C   0  0  0  0  0  0  0  0  0  0  0  0
  -20.2033   11.8357   25.5751 N   0  0  0  0  0  0  0  0  0  0  0  0
  -21.3248   11.4829   24.9586 C   0  0  0  0  0  0  0  0  0  0  0  0
  -21.2673   11.1332   23.7892 O   0  0  0  0  0  0  0  0  0  0  0  0
  -22.5478   11.6250   25.7229 C   0  0  0  0  0  0  0  0  0  0  0  0
  -23.8106   11.2646   25.2091 C   0  0  0  0  0  0  0  0  0  0  0  0
  -24.7263   11.3360   26.2078 N   0  0  0  0  0  0  0  0  0  0  0  0
  -23.9756   11.8753   27.2407 N   0  0  0  0  0  0  0  0  0  0  0  0
  -22.6545   12.0425   27.0016 N   0  0  0  0  0  0  0  0  0  0  0  0
  -18.8581   14.1311   25.1808 H   0  0  0  0  0  0  0  0  0  0  0  0
  -17.5747   13.4634   24.0594 H   0  0  0  0  0  0  0  0  0  0  0  0
  -19.2812   13.6035   23.4980 H   0  0  0  0  0  0  0  0  0  0  0  0
  -18.9531   11.4233   23.9581 H   0  0  0  0  0  0  0  0  0  0  0  0
  -18.0297   11.7611   25.4740 H   0  0  0  0  0  0  0  0  0  0  0  0
  -20.2052   12.1479   26.5350 H   0  0  0  0  0  0  0  0  0  0  0  0
  -24.0474   10.8285   24.2473 H   0  0  0  0  0  0  0  0  0  0  0  0
  -24.4117   12.0622   28.1339 H   0  0  0  0  0  0  0  0  0  0  0  0
  1  2  1  0  0  0  0
  1 11  1  0  0  0  0
  1 12  1  0  0  0  0
  1 13  1  0  0  0  0
  2  3  1  0  0  0  0
  2 14  1  0  0  0  0
  2 15  1  0  0  0  0
  3  4  1  0  0  0  0
  3 16  1  0  0  0  0
  4  5  2  0  0  0  0
  4  6  1  0  0  0  0
  6  7  1  0  0  0  0
  6 10  2  0  0  0  0
  7  8  2  0  0  0  0
  7 17  1  0  0  0  0
  8  9  1  0  0  0  0
  9 10  1  0  0  0  0
  9 18  1  0  0  0  0
M  END
$$$$
