MD_2_clus0
  MOE2019           3D

 22 22  0  0  0  0  0  0  0  0999 V2000
  -19.9193   14.0500   28.5376 C   0  0  0  0  0  0  0  0  0  0  0  0
  -18.4696   14.0233   28.1887 C   0  0  0  0  0  0  0  0  0  0  0  0
  -18.1817   13.3913   26.9419 N   0  0  0  0  0  0  0  0  0  0  0  0
  -18.4748   12.0809   26.7007 C   0  0  0  0  0  0  0  0  0  0  0  0
  -18.1630   12.0113   25.3339 C   0  0  0  0  0  0  0  0  0  0  0  0
  -18.3158   10.7886   24.5671 C   0  0  0  0  0  0  0  0  0  0  0  0
  -17.6262   10.6891   23.2263 C   0  0  0  0  0  0  0  0  0  0  0  0
  -16.2109   10.6531   23.4881 O   0  0  0  0  0  0  0  0  0  0  0  0
  -17.6554   13.2387   24.8444 C   0  0  0  0  0  0  0  0  0  0  0  0
  -17.6971   14.0491   25.9329 N   0  0  0  0  0  0  0  0  0  0  0  0
  -20.1653   14.6065   29.4444 H   0  0  0  0  0  0  0  0  0  0  0  0
  -20.4211   14.6754   27.7957 H   0  0  0  0  0  0  0  0  0  0  0  0
  -20.3826   13.0910   28.2973 H   0  0  0  0  0  0  0  0  0  0  0  0
  -18.0861   15.0440   28.1129 H   0  0  0  0  0  0  0  0  0  0  0  0
  -17.9507   13.5550   29.0285 H   0  0  0  0  0  0  0  0  0  0  0  0
  -18.6887   11.3027   27.4229 H   0  0  0  0  0  0  0  0  0  0  0  0
  -18.1638    9.8776   25.1478 H   0  0  0  0  0  0  0  0  0  0  0  0
  -19.3647   10.7956   24.2653 H   0  0  0  0  0  0  0  0  0  0  0  0
  -17.9369    9.7925   22.6840 H   0  0  0  0  0  0  0  0  0  0  0  0
  -17.7987   11.5667   22.5974 H   0  0  0  0  0  0  0  0  0  0  0  0
  -15.7971   11.5289   23.3897 H   0  0  0  0  0  0  0  0  0  0  0  0
  -17.2243   13.5258   23.8939 H   0  0  0  0  0  0  0  0  0  0  0  0
  1  2  1  0  0  0  0
  1 11  1  0  0  0  0
  1 12  1  0  0  0  0
  1 13  1  0  0  0  0
  2  3  1  0  0  0  0
  2 14  1  0  0  0  0
  2 15  1  0  0  0  0
  3  4  1  0  0  0  0
  3 10  1  0  0  0  0
  4  5  2  0  0  0  0
  4 16  1  0  0  0  0
  5  6  1  0  0  0  0
  5  9  1  0  0  0  0
  6  7  1  0  0  0  0
  6 17  1  0  0  0  0
  6 18  1  0  0  0  0
  7  8  1  0  0  0  0
  7 19  1  0  0  0  0
  7 20  1  0  0  0  0
  8 21  1  0  0  0  0
  9 10  2  0  0  0  0
  9 22  1  0  0  0  0
M  END
$$$$
