MD_2_clus4
  MOE2019           3D

 23 23  0  0  0  0  0  0  0  0999 V2000
  -19.5941   15.0875   27.4898 C   0  0  0  0  0  0  0  0  0  0  0  0
  -20.7352   14.2472   27.6612 N   0  0  0  0  0  0  0  0  0  0  0  0
  -21.0516   13.2198   26.8158 C   0  0  0  0  0  0  0  0  0  0  0  0
  -20.1324   12.7298   25.8874 C   0  0  0  0  0  0  0  0  0  0  0  0
  -20.4324   11.6196   25.1106 C   0  0  0  0  0  0  0  0  0  0  0  0
  -21.6423   10.9755   25.3661 C   0  0  0  0  0  0  0  0  0  0  0  0
  -22.4982   11.4505   26.3488 C   0  0  0  0  0  0  0  0  0  0  0  0
  -22.1694   12.5821   27.1639 C   0  0  0  0  0  0  0  0  0  0  0  0
  -23.4284   13.0846   28.2979 S   0  0  0  0  0  0  0  0  0  0  0  0
  -23.3491   14.4984   28.5219 O   0  0  0  0  0  0  0  0  0  0  0  0
  -24.6973   12.5490   27.7870 O   0  0  0  0  0  0  0  0  0  0  0  0
  -23.0778   12.2397   29.7448 C   0  0  0  0  0  0  0  0  0  0  0  0
  -19.8611   16.0634   27.9040 H   0  0  0  0  0  0  0  0  0  0  0  0
  -18.6434   14.6462   27.7981 H   0  0  0  0  0  0  0  0  0  0  0  0
  -19.4256   15.2907   26.4297 H   0  0  0  0  0  0  0  0  0  0  0  0
  -21.4936   14.7594   28.0995 H   0  0  0  0  0  0  0  0  0  0  0  0
  -19.0966   13.0554   25.8374 H   0  0  0  0  0  0  0  0  0  0  0  0
  -19.6876   11.2690   24.4009 H   0  0  0  0  0  0  0  0  0  0  0  0
  -21.9537   10.1270   24.7624 H   0  0  0  0  0  0  0  0  0  0  0  0
  -23.4360   10.9522   26.5816 H   0  0  0  0  0  0  0  0  0  0  0  0
  -24.0849   12.2686   30.1698 H   0  0  0  0  0  0  0  0  0  0  0  0
  -22.7860   11.2270   29.4560 H   0  0  0  0  0  0  0  0  0  0  0  0
  -22.2929   12.6916   30.3553 H   0  0  0  0  0  0  0  0  0  0  0  0
  1  2  1  0  0  0  0
  1 13  1  0  0  0  0
  1 14  1  0  0  0  0
  1 15  1  0  0  0  0
  2  3  1  0  0  0  0
  2 16  1  0  0  0  0
  3  4  1  0  0  0  0
  3  8  2  0  0  0  0
  4  5  2  0  0  0  0
  4 17  1  0  0  0  0
  5  6  1  0  0  0  0
  5 18  1  0  0  0  0
  6  7  2  0  0  0  0
  6 19  1  0  0  0  0
  7  8  1  0  0  0  0
  7 20  1  0  0  0  0
  8  9  1  0  0  0  0
  9 10  2  0  0  0  0
  9 11  2  0  0  0  0
  9 12  1  0  0  0  0
 12 21  1  0  0  0  0
 12 22  1  0  0  0  0
 12 23  1  0  0  0  0
M  END
$$$$
