MD_3_clus0
  MOE2019           3D

 23 24  0  0  1  0  0  0  0  0999 V2000
  -23.6111   11.1598   28.9583 C   0  0  0  0  0  0  0  0  0  0  0  0
  -24.5988   12.2494   29.1589 N   0  3  0  0  0  0  0  0  0  0  0  0
  -24.5319   13.4588   28.5969 N   0  0  0  0  0  0  0  0  0  0  0  0
  -25.6279   14.1448   28.9648 N   0  0  0  0  0  0  0  0  0  0  0  0
  -26.3588   13.4418   29.7853 C   0  0  0  0  0  0  0  0  0  0  0  0
  -27.7561   13.7615   30.3364 C   0  0  0  0  0  0  0  0  0  0  0  0
  -28.4488   12.5056   30.7395 C   0  0  0  0  0  0  0  0  0  0  0  0
  -27.6464   11.3202   31.3740 C   0  0  3  0  0  0  0  0  0  0  0  0
  -26.5303   10.9021   30.3478 C   0  0  0  0  0  0  0  0  0  0  0  0
  -25.8052   12.1649   29.8369 C   0  0  0  0  0  0  0  0  0  0  0  0
  -28.6317   10.3288   31.8306 C   0  0  0  0  0  0  0  0  0  0  0  0
  -28.5179    9.8837   32.9206 O   0  5  0  0  0  0  0  0  0  0  0  0
  -29.5193    9.9364   31.1612 O   0  0  0  0  0  0  0  0  0  0  0  0
  -23.0689   10.9219   29.8763 H   0  0  0  0  0  0  0  0  0  0  0  0
  -24.1459   10.2910   28.5652 H   0  0  0  0  0  0  0  0  0  0  0  0
  -22.9593   11.3848   28.1093 H   0  0  0  0  0  0  0  0  0  0  0  0
  -27.6391   14.3100   31.2740 H   0  0  0  0  0  0  0  0  0  0  0  0
  -28.3303   14.4748   29.7417 H   0  0  0  0  0  0  0  0  0  0  0  0
  -29.3012   12.7649   31.3703 H   0  0  0  0  0  0  0  0  0  0  0  0
  -29.0140   12.0362   29.9324 H   0  0  0  0  0  0  0  0  0  0  0  0
  -27.0648   11.7278   32.2039 H   0  0  0  0  0  0  0  0  0  0  0  0
  -25.8522   10.2212   30.8645 H   0  0  0  0  0  0  0  0  0  0  0  0
  -27.0949   10.3413   29.6005 H   0  0  0  0  0  0  0  0  0  0  0  0
  1  2  1  0  0  0  0
  1 14  1  0  0  0  0
  1 15  1  0  0  0  0
  1 16  1  0  0  0  0
  2  3  2  0  0  0  0
  2 10  1  0  0  0  0
  3  4  1  0  0  0  0
  4  5  1  0  0  0  0
  5  6  1  0  0  0  0
  5 10  2  0  0  0  0
  6  7  1  0  0  0  0
  6 17  1  0  0  0  0
  6 18  1  0  0  0  0
  7  8  1  0  0  0  0
  7 19  1  0  0  0  0
  7 20  1  0  0  0  0
  8  9  1  0  0  0  0
  8 11  1  0  0  0  0
  8 21  1  0  0  0  0
  9 10  1  0  0  0  0
  9 22  1  0  0  0  0
  9 23  1  0  0  0  0
 11 12  1  0  0  0  0
 11 13  2  0  0  0  0
M  CHG  1   2   1
M  CHG  1  12  -1
M  END
$$$$
