MD_2_clus3
  MOE2019           3D

 23 23  0  0  0  0  0  0  0  0999 V2000
  -19.3831   14.3860   24.7723 C   0  0  0  0  0  0  0  0  0  0  0  0
  -19.4634   13.0554   25.4310 N   0  0  0  0  0  0  0  0  0  0  0  0
  -20.7184   12.6992   25.7020 C   0  0  0  0  0  0  0  0  0  0  0  0
  -21.4769   12.0572   24.7356 C   0  0  0  0  0  0  0  0  0  0  0  0
  -22.8315   11.8982   24.8310 C   0  0  0  0  0  0  0  0  0  0  0  0
  -23.4907   12.3104   25.9773 C   0  0  0  0  0  0  0  0  0  0  0  0
  -22.7918   12.9578   26.9196 C   0  0  0  0  0  0  0  0  0  0  0  0
  -21.4206   13.1468   26.7957 C   0  0  0  0  0  0  0  0  0  0  0  0
  -20.5152   14.1024   28.0698 S   0  0  0  0  0  0  0  0  0  0  0  0
  -20.0917   15.4184   27.5622 O   0  0  0  0  0  0  0  0  0  0  0  0
  -21.4998   14.0777   29.1663 O   0  0  0  0  0  0  0  0  0  0  0  0
  -19.0846   13.3081   28.5743 C   0  0  0  0  0  0  0  0  0  0  0  0
  -20.2723   14.7813   24.2738 H   0  0  0  0  0  0  0  0  0  0  0  0
  -19.0660   15.1455   25.4908 H   0  0  0  0  0  0  0  0  0  0  0  0
  -18.5044   14.2438   24.1391 H   0  0  0  0  0  0  0  0  0  0  0  0
  -18.9653   12.2772   25.0118 H   0  0  0  0  0  0  0  0  0  0  0  0
  -20.9431   11.4998   23.9700 H   0  0  0  0  0  0  0  0  0  0  0  0
  -23.3868   11.3591   24.0670 H   0  0  0  0  0  0  0  0  0  0  0  0
  -24.5255   11.9890   26.0717 H   0  0  0  0  0  0  0  0  0  0  0  0
  -23.2298   13.4189   27.8000 H   0  0  0  0  0  0  0  0  0  0  0  0
  -18.8312   13.8034   29.5155 H   0  0  0  0  0  0  0  0  0  0  0  0
  -19.3349   12.2462   28.6466 H   0  0  0  0  0  0  0  0  0  0  0  0
  -18.2159   13.4383   27.9232 H   0  0  0  0  0  0  0  0  0  0  0  0
  1  2  1  0  0  0  0
  1 13  1  0  0  0  0
  1 14  1  0  0  0  0
  1 15  1  0  0  0  0
  2  3  1  0  0  0  0
  2 16  1  0  0  0  0
  3  4  1  0  0  0  0
  3  8  2  0  0  0  0
  4  5  2  0  0  0  0
  4 17  1  0  0  0  0
  5  6  1  0  0  0  0
  5 18  1  0  0  0  0
  6  7  2  0  0  0  0
  6 19  1  0  0  0  0
  7  8  1  0  0  0  0
  7 20  1  0  0  0  0
  8  9  1  0  0  0  0
  9 10  2  0  0  0  0
  9 11  2  0  0  0  0
  9 12  1  0  0  0  0
 12 21  1  0  0  0  0
 12 22  1  0  0  0  0
 12 23  1  0  0  0  0
M  END
$$$$
