MD_2_clus0
  MOE2019           3D

 24 25  0  0  0  0  0  0  0  0999 V2000
  -20.5398   11.4734   24.6625 F   0  0  0  0  0  0  0  0  0  0  0  0
  -20.0940   12.4905   25.3993 C   0  0  0  0  0  0  0  0  0  0  0  0
  -18.7550   12.7606   25.4859 C   0  0  0  0  0  0  0  0  0  0  0  0
  -18.2364   13.7254   26.3961 C   0  0  0  0  0  0  0  0  0  0  0  0
  -19.2185   14.4705   27.1575 C   0  0  0  0  0  0  0  0  0  0  0  0
  -20.5443   14.1120   27.0604 C   0  0  0  0  0  0  0  0  0  0  0  0
  -20.9464   13.1050   26.2133 C   0  0  0  0  0  0  0  0  0  0  0  0
  -22.2480   12.6098   26.2377 N   0  0  0  0  0  0  0  0  0  0  0  0
  -23.3603   12.9915   27.1212 C   0  0  0  0  0  0  0  0  0  0  0  0
  -23.3387   12.4590   28.5619 C   0  0  0  0  0  0  0  0  0  0  0  0
  -22.2665   11.6386   29.0261 C   0  0  0  0  0  0  0  0  0  0  0  0
  -22.4145   11.3895   30.3803 C   0  0  0  0  0  0  0  0  0  0  0  0
  -23.5925   12.0677   30.7012 N   0  0  0  0  0  0  0  0  0  0  0  0
  -24.1400   12.6631   29.6516 N   0  0  0  0  0  0  0  0  0  0  0  0
  -18.0670   12.2662   24.8056 H   0  0  0  0  0  0  0  0  0  0  0  0
  -17.1769   13.9534   26.4882 H   0  0  0  0  0  0  0  0  0  0  0  0
  -18.9323   15.2648   27.8416 H   0  0  0  0  0  0  0  0  0  0  0  0
  -21.3291   14.4769   27.7178 H   0  0  0  0  0  0  0  0  0  0  0  0
  -22.5086   11.9155   25.5456 H   0  0  0  0  0  0  0  0  0  0  0  0
  -23.4350   14.0776   27.2155 H   0  0  0  0  0  0  0  0  0  0  0  0
  -24.2495   12.5692   26.6464 H   0  0  0  0  0  0  0  0  0  0  0  0
  -21.4285   11.3127   28.4201 H   0  0  0  0  0  0  0  0  0  0  0  0
  -21.8018   10.8631   31.1015 H   0  0  0  0  0  0  0  0  0  0  0  0
  -24.0778   12.2110   31.5765 H   0  0  0  0  0  0  0  0  0  0  0  0
  1  2  1  0  0  0  0
  2  3  1  0  0  0  0
  2  7  2  0  0  0  0
  3  4  2  0  0  0  0
  3 15  1  0  0  0  0
  4  5  1  0  0  0  0
  4 16  1  0  0  0  0
  5  6  2  0  0  0  0
  5 17  1  0  0  0  0
  6  7  1  0  0  0  0
  6 18  1  0  0  0  0
  7  8  1  0  0  0  0
  8  9  1  0  0  0  0
  8 19  1  0  0  0  0
  9 10  1  0  0  0  0
  9 20  1  0  0  0  0
  9 21  1  0  0  0  0
 10 11  1  0  0  0  0
 10 14  2  0  0  0  0
 11 12  2  0  0  0  0
 11 22  1  0  0  0  0
 12 13  1  0  0  0  0
 12 23  1  0  0  0  0
 13 14  1  0  0  0  0
 13 24  1  0  0  0  0
M  END
$$$$
