MD_3_clus0
  MOE2019           3D

 18 18  0  0  0  0  0  0  0  0999 V2000
  -21.3977   11.7047   30.6585 C   0  0  0  0  0  0  0  0  0  0  0  0
  -21.2731   13.1961   30.5744 C   0  0  0  0  0  0  0  0  0  0  0  0
  -20.7379   13.5912   29.2485 O   0  0  0  0  0  0  0  0  0  0  0  0
  -20.4808   14.8745   28.9409 C   0  0  0  0  0  0  0  0  0  0  0  0
  -20.4868   15.7930   29.7697 O   0  0  0  0  0  0  0  0  0  0  0  0
  -19.9569   15.0276   27.5582 C   0  0  0  0  0  0  0  0  0  0  0  0
  -19.9411   13.9962   26.5662 C   0  0  0  0  0  0  0  0  0  0  0  0
  -19.6061   14.5594   25.3763 N   0  0  0  0  0  0  0  0  0  0  0  0
  -19.3460   15.8505   25.6034 N   0  0  0  0  0  0  0  0  0  0  0  0
  -19.6293   16.1793   26.9503 C   0  0  0  0  0  0  0  0  0  0  0  0
  -22.2800   11.4410   31.2452 H   0  0  0  0  0  0  0  0  0  0  0  0
  -21.6025   11.3178   29.6576 H   0  0  0  0  0  0  0  0  0  0  0  0
  -20.4912   11.3503   31.1526 H   0  0  0  0  0  0  0  0  0  0  0  0
  -22.2490   13.6797   30.6670 H   0  0  0  0  0  0  0  0  0  0  0  0
  -20.6947   13.5687   31.4236 H   0  0  0  0  0  0  0  0  0  0  0  0
  -20.2405   12.9569   26.6269 H   0  0  0  0  0  0  0  0  0  0  0  0
  -19.0860   16.4433   24.8263 H   0  0  0  0  0  0  0  0  0  0  0  0
  -19.5580   17.2203   27.2419 H   0  0  0  0  0  0  0  0  0  0  0  0
  1  2  1  0  0  0  0
  1 11  1  0  0  0  0
  1 12  1  0  0  0  0
  1 13  1  0  0  0  0
  2  3  1  0  0  0  0
  2 14  1  0  0  0  0
  2 15  1  0  0  0  0
  3  4  1  0  0  0  0
  4  5  2  0  0  0  0
  4  6  1  0  0  0  0
  6  7  1  0  0  0  0
  6 10  2  0  0  0  0
  7  8  2  0  0  0  0
  7 16  1  0  0  0  0
  8  9  1  0  0  0  0
  9 10  1  0  0  0  0
  9 17  1  0  0  0  0
 10 18  1  0  0  0  0
M  END
$$$$
