MD_2_clus3
  MOE2019           3D

 19 19  0  0  0  0  0  0  0  0999 V2000
  -18.1899   12.1159   26.9274 C   0  0  0  0  0  0  0  0  0  0  0  0
  -18.9648   11.3963   25.8842 C   0  0  0  0  0  0  0  0  0  0  0  0
  -18.4725   10.4762   25.2364 O   0  0  0  0  0  0  0  0  0  0  0  0
  -20.1695   11.9983   25.6576 N   0  0  0  0  0  0  0  0  0  0  0  0
  -21.1195   11.2777   24.8333 C   0  0  0  0  0  0  0  0  0  0  0  0
  -22.5764   11.4029   25.4002 C   0  0  0  0  0  0  0  0  0  0  0  0
  -23.7482   11.0079   24.6673 C   0  0  0  0  0  0  0  0  0  0  0  0
  -24.7664   11.2365   25.4904 N   0  0  0  0  0  0  0  0  0  0  0  0
  -24.2959   12.0339   26.5055 N   0  0  0  0  0  0  0  0  0  0  0  0
  -22.9510   11.9282   26.6005 C   0  0  0  0  0  0  0  0  0  0  0  0
  -17.2639   11.5723   27.1251 H   0  0  0  0  0  0  0  0  0  0  0  0
  -17.9244   13.1496   26.6960 H   0  0  0  0  0  0  0  0  0  0  0  0
  -18.6671   12.1236   27.9104 H   0  0  0  0  0  0  0  0  0  0  0  0
  -20.4554   12.7190   26.3041 H   0  0  0  0  0  0  0  0  0  0  0  0
  -20.9279   11.6277   23.8159 H   0  0  0  0  0  0  0  0  0  0  0  0
  -20.8556   10.2422   25.0623 H   0  0  0  0  0  0  0  0  0  0  0  0
  -23.8502   10.6556   23.6483 H   0  0  0  0  0  0  0  0  0  0  0  0
  -24.9084   12.5558   27.1190 H   0  0  0  0  0  0  0  0  0  0  0  0
  -22.5410   12.2676   27.5439 H   0  0  0  0  0  0  0  0  0  0  0  0
  1  2  1  0  0  0  0
  1 11  1  0  0  0  0
  1 12  1  0  0  0  0
  1 13  1  0  0  0  0
  2  3  2  0  0  0  0
  2  4  1  0  0  0  0
  4  5  1  0  0  0  0
  4 14  1  0  0  0  0
  5  6  1  0  0  0  0
  5 15  1  0  0  0  0
  5 16  1  0  0  0  0
  6  7  1  0  0  0  0
  6 10  2  0  0  0  0
  7  8  2  0  0  0  0
  7 17  1  0  0  0  0
  8  9  1  0  0  0  0
  9 10  1  0  0  0  0
  9 18  1  0  0  0  0
 10 19  1  0  0  0  0
M  END
$$$$
