MD_3_clus6
  MOE2019           3D

 24 25  0  0  0  0  0  0  0  0999 V2000
  -17.6020   14.7199   29.6306 C   0  0  0  0  0  0  0  0  0  0  0  0
  -18.8643   13.5931   30.0382 S   0  0  0  0  0  0  0  0  0  0  0  0
  -18.1716   12.3729   30.1004 O   0  0  0  0  0  0  0  0  0  0  0  0
  -19.5204   14.0180   31.2608 O   0  0  0  0  0  0  0  0  0  0  0  0
  -19.9433   13.7567   28.7101 C   0  0  0  0  0  0  0  0  0  0  0  0
  -19.3283   13.1655   27.5328 C   0  0  0  0  0  0  0  0  0  0  0  0
  -19.7607   11.9324   26.9793 N   0  0  0  0  0  0  0  0  0  0  0  0
  -19.0726   11.7726   25.8524 C   0  0  0  0  0  0  0  0  0  0  0  0
  -19.0989   10.7639   24.8449 C   0  0  0  0  0  0  0  0  0  0  0  0
  -18.3274   10.9133   23.7246 C   0  0  0  0  0  0  0  0  0  0  0  0
  -17.5522   12.0430   23.5658 C   0  0  0  0  0  0  0  0  0  0  0  0
  -17.5792   13.0634   24.5286 C   0  0  0  0  0  0  0  0  0  0  0  0
  -18.3470   12.9382   25.6669 C   0  0  0  0  0  0  0  0  0  0  0  0
  -18.4657   13.8268   26.6504 N   0  0  0  0  0  0  0  0  0  0  0  0
  -16.7839   14.7530   30.3548 H   0  0  0  0  0  0  0  0  0  0  0  0
  -17.2567   14.1623   28.7569 H   0  0  0  0  0  0  0  0  0  0  0  0
  -17.9068   15.6608   29.1644 H   0  0  0  0  0  0  0  0  0  0  0  0
  -20.8171   13.1637   28.9926 H   0  0  0  0  0  0  0  0  0  0  0  0
  -20.0370   14.8368   28.5733 H   0  0  0  0  0  0  0  0  0  0  0  0
  -20.3083   11.2864   27.5320 H   0  0  0  0  0  0  0  0  0  0  0  0
  -19.7214    9.8744   24.8986 H   0  0  0  0  0  0  0  0  0  0  0  0
  -18.2897   10.1141   22.9879 H   0  0  0  0  0  0  0  0  0  0  0  0
  -17.0366   12.2407   22.6295 H   0  0  0  0  0  0  0  0  0  0  0  0
  -17.0017   13.9697   24.3643 H   0  0  0  0  0  0  0  0  0  0  0  0
  1  2  1  0  0  0  0
  1 15  1  0  0  0  0
  1 16  1  0  0  0  0
  1 17  1  0  0  0  0
  2  3  2  0  0  0  0
  2  4  2  0  0  0  0
  2  5  1  0  0  0  0
  5  6  1  0  0  0  0
  5 18  1  0  0  0  0
  5 19  1  0  0  0  0
  6  7  1  0  0  0  0
  6 14  2  0  0  0  0
  7  8  1  0  0  0  0
  7 20  1  0  0  0  0
  8  9  1  0  0  0  0
  8 13  2  0  0  0  0
  9 10  2  0  0  0  0
  9 21  1  0  0  0  0
 10 11  1  0  0  0  0
 10 22  1  0  0  0  0
 11 12  2  0  0  0  0
 11 23  1  0  0  0  0
 12 13  1  0  0  0  0
 12 24  1  0  0  0  0
 13 14  1  0  0  0  0
M  END
$$$$
