MD_1_clus1
  MOE2019           3D

 27 28  0  0  0  0  0  0  0  0999 V2000
  -19.9771   13.7967   28.3034 C   0  0  0  0  0  0  0  0  0  0  0  0
  -19.8721   12.6813   27.3056 C   0  0  0  0  0  0  0  0  0  0  0  0
  -19.4207   12.7872   26.0445 N   0  0  0  0  0  0  0  0  0  0  0  0
  -19.5221   11.5672   25.4559 N   0  0  0  0  0  0  0  0  0  0  0  0
  -20.0871   10.7186   26.2714 C   0  0  0  0  0  0  0  0  0  0  0  0
  -20.5185   11.5327   27.3738 C   0  0  0  0  0  0  0  0  0  0  0  0
  -21.1315   10.8101   28.5068 C   0  0  0  0  0  0  0  0  0  0  0  0
  -22.5436   11.1459   28.5924 N   0  0  0  0  0  0  0  0  0  0  0  0
  -23.2486   10.8780   29.7107 C   0  0  0  0  0  0  0  0  0  0  0  0
  -22.8294    9.9195   30.6903 C   0  0  0  0  0  0  0  0  0  0  0  0
  -23.5470    9.7859   31.8820 C   0  0  0  0  0  0  0  0  0  0  0  0
  -24.6847   10.5937   32.1010 C   0  0  0  0  0  0  0  0  0  0  0  0
  -25.0894   11.5129   31.1442 C   0  0  0  0  0  0  0  0  0  0  0  0
  -24.3876   11.6460   29.9355 C   0  0  0  0  0  0  0  0  0  0  0  0
  -24.6976   12.5550   29.0541 F   0  0  0  0  0  0  0  0  0  0  0  0
  -19.9260   14.7523   27.7770 H   0  0  0  0  0  0  0  0  0  0  0  0
  -20.9712   13.7978   28.7535 H   0  0  0  0  0  0  0  0  0  0  0  0
  -19.1275   13.7653   28.9894 H   0  0  0  0  0  0  0  0  0  0  0  0
  -18.9705   13.5672   25.5866 H   0  0  0  0  0  0  0  0  0  0  0  0
  -20.3435    9.7221   25.9332 H   0  0  0  0  0  0  0  0  0  0  0  0
  -20.9512    9.7320   28.5277 H   0  0  0  0  0  0  0  0  0  0  0  0
  -20.6625   11.2116   29.4088 H   0  0  0  0  0  0  0  0  0  0  0  0
  -22.7691   12.0136   28.1187 H   0  0  0  0  0  0  0  0  0  0  0  0
  -21.9480    9.3240   30.4672 H   0  0  0  0  0  0  0  0  0  0  0  0
  -23.2713    9.0089   32.5910 H   0  0  0  0  0  0  0  0  0  0  0  0
  -25.2133   10.5214   33.0477 H   0  0  0  0  0  0  0  0  0  0  0  0
  -25.9486   12.1678   31.2583 H   0  0  0  0  0  0  0  0  0  0  0  0
  1  2  1  0  0  0  0
  1 16  1  0  0  0  0
  1 17  1  0  0  0  0
  1 18  1  0  0  0  0
  2  3  1  0  0  0  0
  2  6  2  0  0  0  0
  3  4  1  0  0  0  0
  3 19  1  0  0  0  0
  4  5  2  0  0  0  0
  5  6  1  0  0  0  0
  5 20  1  0  0  0  0
  6  7  1  0  0  0  0
  7  8  1  0  0  0  0
  7 21  1  0  0  0  0
  7 22  1  0  0  0  0
  8  9  1  0  0  0  0
  8 23  1  0  0  0  0
  9 10  1  0  0  0  0
  9 14  2  0  0  0  0
 10 11  2  0  0  0  0
 10 24  1  0  0  0  0
 11 12  1  0  0  0  0
 11 25  1  0  0  0  0
 12 13  2  0  0  0  0
 12 26  1  0  0  0  0
 13 14  1  0  0  0  0
 13 27  1  0  0  0  0
 14 15  1  0  0  0  0
M  END
$$$$
