MD_2_clus2
  MOE2019           3D

 24 24  0  0  0  0  0  0  0  0999 V2000
  -19.1213   14.6013   29.4623 C   0  0  0  0  0  0  0  0  0  0  0  0
  -17.7944   13.7228   29.3670 C   0  0  0  0  0  0  0  0  0  0  0  0
  -17.8153   13.0094   28.1998 O   0  0  0  0  0  0  0  0  0  0  0  0
  -17.6189   13.6578   27.0262 C   0  0  0  0  0  0  0  0  0  0  0  0
  -17.5743   14.8710   26.8602 O   0  0  0  0  0  0  0  0  0  0  0  0
  -17.4184   12.7813   25.9928 N   0  0  0  0  0  0  0  0  0  0  0  0
  -16.8078   13.2689   24.7080 C   0  0  0  0  0  0  0  0  0  0  0  0
  -16.7991   12.2388   23.5380 C   0  0  0  0  0  0  0  0  0  0  0  0
  -17.8699   11.3705   23.8276 O   0  0  0  0  0  0  0  0  0  0  0  0
  -17.6442   10.5009   24.8530 C   0  0  0  0  0  0  0  0  0  0  0  0
  -17.6513   11.3325   26.1744 C   0  0  0  0  0  0  0  0  0  0  0  0
  -19.6047   14.2470   30.3745 H   0  0  0  0  0  0  0  0  0  0  0  0
  -18.7109   15.6144   29.4701 H   0  0  0  0  0  0  0  0  0  0  0  0
  -19.8460   14.4261   28.6643 H   0  0  0  0  0  0  0  0  0  0  0  0
  -16.8504   14.2674   29.4494 H   0  0  0  0  0  0  0  0  0  0  0  0
  -17.7094   12.9772   30.1622 H   0  0  0  0  0  0  0  0  0  0  0  0
  -17.4313   14.0744   24.3131 H   0  0  0  0  0  0  0  0  0  0  0  0
  -15.8609   13.7711   24.9210 H   0  0  0  0  0  0  0  0  0  0  0  0
  -16.9357   12.7487   22.5813 H   0  0  0  0  0  0  0  0  0  0  0  0
  -15.8218   11.7509   23.5498 H   0  0  0  0  0  0  0  0  0  0  0  0
  -18.4994    9.8202   24.8527 H   0  0  0  0  0  0  0  0  0  0  0  0
  -16.6935    9.9748   24.7400 H   0  0  0  0  0  0  0  0  0  0  0  0
  -16.8452   11.0726   26.8654 H   0  0  0  0  0  0  0  0  0  0  0  0
  -18.6034   11.0961   26.6557 H   0  0  0  0  0  0  0  0  0  0  0  0
  1  2  1  0  0  0  0
  1 12  1  0  0  0  0
  1 13  1  0  0  0  0
  1 14  1  0  0  0  0
  2  3  1  0  0  0  0
  2 15  1  0  0  0  0
  2 16  1  0  0  0  0
  3  4  1  0  0  0  0
  4  5  2  0  0  0  0
  4  6  1  0  0  0  0
  6  7  1  0  0  0  0
  6 11  1  0  0  0  0
  7  8  1  0  0  0  0
  7 17  1  0  0  0  0
  7 18  1  0  0  0  0
  8  9  1  0  0  0  0
  8 19  1  0  0  0  0
  8 20  1  0  0  0  0
  9 10  1  0  0  0  0
 10 11  1  0  0  0  0
 10 21  1  0  0  0  0
 10 22  1  0  0  0  0
 11 23  1  0  0  0  0
 11 24  1  0  0  0  0
M  END
$$$$
