MD_1_clus2
  MOE2019           3D

 29 30  0  0  0  0  0  0  0  0999 V2000
  -21.3207   21.0933   25.2864 C   0  0  0  0  0  0  0  0  0  0  0  0
  -20.7156   20.9605   26.6696 C   0  0  0  0  0  0  0  0  0  0  0  0
  -20.3522   19.5907   26.9705 N   0  0  0  0  0  0  0  0  0  0  0  0
  -19.2354   18.9363   26.6115 C   0  0  0  0  0  0  0  0  0  0  0  0
  -19.3680   17.7072   27.1418 C   0  0  0  0  0  0  0  0  0  0  0  0
  -18.4286   16.6501   27.0152 N   0  0  0  0  0  0  0  0  0  0  0  0
  -18.4690   15.4160   27.5051 C   0  0  0  0  0  0  0  0  0  0  0  0
  -19.4462   14.9242   28.0676 O   0  0  0  0  0  0  0  0  0  0  0  0
  -17.2177   14.8606   26.7014 C   0  0  0  0  0  0  0  0  0  0  0  0
  -18.1401   14.2536   25.5790 C   0  0  0  0  0  0  0  0  0  0  0  0
  -17.1946   13.0747   25.7364 C   0  0  0  0  0  0  0  0  0  0  0  0
  -17.1605   13.4296   27.2883 C   0  0  0  0  0  0  0  0  0  0  0  0
  -20.7057   17.5650   27.5851 C   0  0  0  0  0  0  0  0  0  0  0  0
  -21.2885   18.8002   27.6424 N   0  0  0  0  0  0  0  0  0  0  0  0
  -22.0155   20.2739   25.0942 H   0  0  0  0  0  0  0  0  0  0  0  0
  -21.6829   22.0986   25.0614 H   0  0  0  0  0  0  0  0  0  0  0  0
  -20.4547   20.8334   24.6747 H   0  0  0  0  0  0  0  0  0  0  0  0
  -19.8293   21.5693   26.8626 H   0  0  0  0  0  0  0  0  0  0  0  0
  -21.4675   21.3149   27.3793 H   0  0  0  0  0  0  0  0  0  0  0  0
  -18.4319   19.4479   26.0972 H   0  0  0  0  0  0  0  0  0  0  0  0
  -17.6119   16.8210   26.4470 H   0  0  0  0  0  0  0  0  0  0  0  0
  -16.3059   15.3695   26.3749 H   0  0  0  0  0  0  0  0  0  0  0  0
  -19.1689   14.0034   25.8551 H   0  0  0  0  0  0  0  0  0  0  0  0
  -18.1214   14.6576   24.5616 H   0  0  0  0  0  0  0  0  0  0  0  0
  -17.5764   12.0725   25.5183 H   0  0  0  0  0  0  0  0  0  0  0  0
  -16.1843   13.0603   25.3169 H   0  0  0  0  0  0  0  0  0  0  0  0
  -16.2225   13.1168   27.7566 H   0  0  0  0  0  0  0  0  0  0  0  0
  -17.8880   12.9011   27.9123 H   0  0  0  0  0  0  0  0  0  0  0  0
  -21.2488   16.7425   28.0357 H   0  0  0  0  0  0  0  0  0  0  0  0
  1  2  1  0  0  0  0
  1 15  1  0  0  0  0
  1 16  1  0  0  0  0
  1 17  1  0  0  0  0
  2  3  1  0  0  0  0
  2 18  1  0  0  0  0
  2 19  1  0  0  0  0
  3  4  1  0  0  0  0
  3 14  1  0  0  0  0
  4  5  2  0  0  0  0
  4 20  1  0  0  0  0
  5  6  1  0  0  0  0
  5 13  1  0  0  0  0
  6  7  1  0  0  0  0
  6 21  1  0  0  0  0
  7  8  2  0  0  0  0
  7  9  1  0  0  0  0
  9 10  1  0  0  0  0
  9 12  1  0  0  0  0
  9 22  1  0  0  0  0
 10 11  1  0  0  0  0
 10 23  1  0  0  0  0
 10 24  1  0  0  0  0
 11 12  1  0  0  0  0
 11 25  1  0  0  0  0
 11 26  1  0  0  0  0
 12 27  1  0  0  0  0
 12 28  1  0  0  0  0
 13 14  2  0  0  0  0
 13 29  1  0  0  0  0
M  END
$$$$
