MD_1_clus0
  MOE2019           3D

 18 18  0  0  0  0  0  0  0  0999 V2000
  -20.8843   14.3230   28.1274 C   0  0  0  0  0  0  0  0  0  0  0  0
  -19.4473   13.6593   28.3922 C   0  0  0  0  0  0  0  0  0  0  0  0
  -18.9984   12.9268   27.3016 O   0  0  0  0  0  0  0  0  0  0  0  0
  -18.5299   13.6819   26.2899 C   0  0  0  0  0  0  0  0  0  0  0  0
  -18.3466   14.9256   26.3648 O   0  0  0  0  0  0  0  0  0  0  0  0
  -18.1371   12.8332   25.0955 C   0  0  0  0  0  0  0  0  0  0  0  0
  -18.4438   11.5045   24.9630 C   0  0  0  0  0  0  0  0  0  0  0  0
  -17.9783   11.0663   23.7766 N   0  0  0  0  0  0  0  0  0  0  0  0
  -17.3225   12.0967   23.1527 N   0  0  0  0  0  0  0  0  0  0  0  0
  -17.5607   13.2774   23.8595 C   0  0  0  0  0  0  0  0  0  0  0  0
  -20.8874   15.0466   27.3100 H   0  0  0  0  0  0  0  0  0  0  0  0
  -21.6141   13.5401   27.9106 H   0  0  0  0  0  0  0  0  0  0  0  0
  -21.2630   14.8580   29.0007 H   0  0  0  0  0  0  0  0  0  0  0  0
  -18.7085   14.4274   28.6371 H   0  0  0  0  0  0  0  0  0  0  0  0
  -19.3764   13.0369   29.2886 H   0  0  0  0  0  0  0  0  0  0  0  0
  -18.8614   10.8888   25.7502 H   0  0  0  0  0  0  0  0  0  0  0  0
  -16.7268   12.0421   22.3376 H   0  0  0  0  0  0  0  0  0  0  0  0
  -17.1786   14.2018   23.4434 H   0  0  0  0  0  0  0  0  0  0  0  0
  1  2  1  0  0  0  0
  1 11  1  0  0  0  0
  1 12  1  0  0  0  0
  1 13  1  0  0  0  0
  2  3  1  0  0  0  0
  2 14  1  0  0  0  0
  2 15  1  0  0  0  0
  3  4  1  0  0  0  0
  4  5  2  0  0  0  0
  4  6  1  0  0  0  0
  6  7  1  0  0  0  0
  6 10  2  0  0  0  0
  7  8  2  0  0  0  0
  7 16  1  0  0  0  0
  8  9  1  0  0  0  0
  9 10  1  0  0  0  0
  9 17  1  0  0  0  0
 10 18  1  0  0  0  0
M  END
$$$$
