MD_2_clus2
  MOE2019           3D

 30 31  0  0  0  0  0  0  0  0999 V2000
  -21.7657   14.2462   29.9674 N   0  0  0  0  0  0  0  0  0  0  0  0
  -21.1959   15.1408   29.1967 C   0  0  0  0  0  0  0  0  0  0  0  0
  -21.8432   16.1027   28.8621 O   0  0  0  0  0  0  0  0  0  0  0  0
  -19.9376   14.9355   28.8105 N   0  0  0  0  0  0  0  0  0  0  0  0
  -19.1934   15.6661   27.7652 C   0  0  0  0  0  0  0  0  0  0  0  0
  -19.0305   14.8388   26.4784 C   0  0  0  0  0  0  0  0  0  0  0  0
  -18.4888   13.4558   26.7289 N   0  0  0  0  0  0  0  0  0  0  0  0
  -18.9629   12.7802   27.9554 C   0  0  0  0  0  0  0  0  0  0  0  0
  -19.1528   13.7332   29.1515 C   0  0  0  0  0  0  0  0  0  0  0  0
  -17.9200   12.6937   25.7257 C   0  0  0  0  0  0  0  0  0  0  0  0
  -18.3091   11.3782   25.4538 C   0  0  0  0  0  0  0  0  0  0  0  0
  -17.7457   10.6090   24.4288 C   0  0  0  0  0  0  0  0  0  0  0  0
  -16.8114   11.2197   23.6112 C   0  0  0  0  0  0  0  0  0  0  0  0
  -16.1576   10.4331   22.6946 F   0  0  0  0  0  0  0  0  0  0  0  0
  -16.5507   12.5911   23.7255 C   0  0  0  0  0  0  0  0  0  0  0  0
  -17.0558   13.3414   24.8421 C   0  0  0  0  0  0  0  0  0  0  0  0
  -22.6974   14.4526   30.2976 H   0  0  0  0  0  0  0  0  0  0  0  0
  -21.2272   13.4775   30.3373 H   0  0  0  0  0  0  0  0  0  0  0  0
  -19.6762   16.6155   27.5184 H   0  0  0  0  0  0  0  0  0  0  0  0
  -18.1316   15.7947   27.9956 H   0  0  0  0  0  0  0  0  0  0  0  0
  -20.0043   14.7166   25.9965 H   0  0  0  0  0  0  0  0  0  0  0  0
  -18.4044   15.3367   25.7339 H   0  0  0  0  0  0  0  0  0  0  0  0
  -19.9167   12.2931   27.7368 H   0  0  0  0  0  0  0  0  0  0  0  0
  -18.3282   11.9490   28.2711 H   0  0  0  0  0  0  0  0  0  0  0  0
  -18.1445   14.0174   29.4645 H   0  0  0  0  0  0  0  0  0  0  0  0
  -19.6527   13.2584   29.9999 H   0  0  0  0  0  0  0  0  0  0  0  0
  -19.0020   10.9593   26.1793 H   0  0  0  0  0  0  0  0  0  0  0  0
  -18.0056    9.5540   24.3934 H   0  0  0  0  0  0  0  0  0  0  0  0
  -15.8679   13.1155   23.0618 H   0  0  0  0  0  0  0  0  0  0  0  0
  -16.7356   14.3660   25.0130 H   0  0  0  0  0  0  0  0  0  0  0  0
  1  2  1  0  0  0  0
  1 17  1  0  0  0  0
  1 18  1  0  0  0  0
  2  3  2  0  0  0  0
  2  4  1  0  0  0  0
  4  5  1  0  0  0  0
  4  9  1  0  0  0  0
  5  6  1  0  0  0  0
  5 19  1  0  0  0  0
  5 20  1  0  0  0  0
  6  7  1  0  0  0  0
  6 21  1  0  0  0  0
  6 22  1  0  0  0  0
  7  8  1  0  0  0  0
  7 10  1  0  0  0  0
  8  9  1  0  0  0  0
  8 23  1  0  0  0  0
  8 24  1  0  0  0  0
  9 25  1  0  0  0  0
  9 26  1  0  0  0  0
 10 11  1  0  0  0  0
 10 16  2  0  0  0  0
 11 12  2  0  0  0  0
 11 27  1  0  0  0  0
 12 13  1  0  0  0  0
 12 28  1  0  0  0  0
 13 14  1  0  0  0  0
 13 15  2  0  0  0  0
 15 16  1  0  0  0  0
 15 29  1  0  0  0  0
 16 30  1  0  0  0  0
M  END
$$$$
