MD_2_clus2
  MOE2019           3D

 29 30  0  0  0  0  0  0  0  0999 V2000
  -15.2614   17.5971   26.0297 N   0  0  0  0  0  0  0  0  0  0  0  0
  -16.2159   18.1305   26.7631 C   0  0  0  0  0  0  0  0  0  0  0  0
  -16.2584   19.3217   27.0463 O   0  0  0  0  0  0  0  0  0  0  0  0
  -17.1894   17.2508   27.0976 N   0  0  0  0  0  0  0  0  0  0  0  0
  -17.1622   15.7681   26.7975 C   0  0  0  0  0  0  0  0  0  0  0  0
  -17.4730   14.9965   28.0869 C   0  0  0  0  0  0  0  0  0  0  0  0
  -18.8067   15.3367   28.5386 N   0  0  0  0  0  0  0  0  0  0  0  0
  -19.3523   16.5969   27.9970 C   0  0  0  0  0  0  0  0  0  0  0  0
  -18.3115   17.6754   27.8991 C   0  0  0  0  0  0  0  0  0  0  0  0
  -19.7013   14.4506   29.0636 C   0  0  0  0  0  0  0  0  0  0  0  0
  -20.8996   14.6930   29.1079 O   0  0  0  0  0  0  0  0  0  0  0  0
  -19.3005   13.1611   29.7323 C   0  0  0  0  0  0  0  0  0  0  0  0
  -20.1732   12.2781   30.3356 C   0  0  0  0  0  0  0  0  0  0  0  0
  -19.4678   11.1334   30.6121 C   0  0  0  0  0  0  0  0  0  0  0  0
  -18.2353   11.3079   30.0293 C   0  0  0  0  0  0  0  0  0  0  0  0
  -18.0258   12.5915   29.5987 O   0  0  0  0  0  0  0  0  0  0  0  0
  -14.6736   18.2235   25.5021 H   0  0  0  0  0  0  0  0  0  0  0  0
  -15.4884   16.7852   25.4763 H   0  0  0  0  0  0  0  0  0  0  0  0
  -17.9243   15.5350   26.0498 H   0  0  0  0  0  0  0  0  0  0  0  0
  -16.1633   15.4065   26.5386 H   0  0  0  0  0  0  0  0  0  0  0  0
  -17.5669   13.9521   27.7763 H   0  0  0  0  0  0  0  0  0  0  0  0
  -16.7795   15.0922   28.9263 H   0  0  0  0  0  0  0  0  0  0  0  0
  -19.7439   16.4306   26.9903 H   0  0  0  0  0  0  0  0  0  0  0  0
  -20.2010   16.8867   28.6214 H   0  0  0  0  0  0  0  0  0  0  0  0
  -17.9492   17.8889   28.9084 H   0  0  0  0  0  0  0  0  0  0  0  0
  -18.7289   18.6373   27.5897 H   0  0  0  0  0  0  0  0  0  0  0  0
  -21.1369   12.5779   30.7337 H   0  0  0  0  0  0  0  0  0  0  0  0
  -19.7991   10.2760   31.1893 H   0  0  0  0  0  0  0  0  0  0  0  0
  -17.3542   10.6790   30.0665 H   0  0  0  0  0  0  0  0  0  0  0  0
  1  2  1  0  0  0  0
  1 17  1  0  0  0  0
  1 18  1  0  0  0  0
  2  3  2  0  0  0  0
  2  4  1  0  0  0  0
  4  5  1  0  0  0  0
  4  9  1  0  0  0  0
  5  6  1  0  0  0  0
  5 19  1  0  0  0  0
  5 20  1  0  0  0  0
  6  7  1  0  0  0  0
  6 21  1  0  0  0  0
  6 22  1  0  0  0  0
  7  8  1  0  0  0  0
  7 10  1  0  0  0  0
  8  9  1  0  0  0  0
  8 23  1  0  0  0  0
  8 24  1  0  0  0  0
  9 25  1  0  0  0  0
  9 26  1  0  0  0  0
 10 11  2  0  0  0  0
 10 12  1  0  0  0  0
 12 13  2  0  0  0  0
 12 16  1  0  0  0  0
 13 14  1  0  0  0  0
 13 27  1  0  0  0  0
 14 15  2  0  0  0  0
 14 28  1  0  0  0  0
 15 16  1  0  0  0  0
 15 29  1  0  0  0  0
M  END
$$$$
