MD_1_clus7
  MOE2019           3D

 16 16  0  0  0  0  0  0  0  0999 V2000
  -23.2536   12.2129   28.6563 C   0  0  0  0  0  0  0  0  0  0  0  0
  -22.2778   11.8789   27.5916 O   0  0  0  0  0  0  0  0  0  0  0  0
  -20.9651   12.4122   27.8257 C   0  0  0  0  0  0  0  0  0  0  0  0
  -20.1476   12.1996   26.5687 C   0  0  0  0  0  0  0  0  0  0  0  0
  -19.8691   10.9899   26.0526 N   0  0  0  0  0  0  0  0  0  0  0  0
  -19.0009   11.1705   24.9456 N   0  0  0  0  0  0  0  0  0  0  0  0
  -18.6721   12.4481   24.8763 C   0  0  0  0  0  0  0  0  0  0  0  0
  -17.8582   12.8911   23.9213 N   0  0  0  0  0  0  0  0  0  0  0  0
  -19.3450   13.5596   25.9362 S   0  0  0  0  0  0  0  0  0  0  0  0
  -22.9435   11.8109   29.6235 H   0  0  0  0  0  0  0  0  0  0  0  0
  -23.2875   13.3066   28.6477 H   0  0  0  0  0  0  0  0  0  0  0  0
  -24.2020   11.7357   28.3980 H   0  0  0  0  0  0  0  0  0  0  0  0
  -21.1131   13.4686   28.0633 H   0  0  0  0  0  0  0  0  0  0  0  0
  -20.6483   11.8860   28.7303 H   0  0  0  0  0  0  0  0  0  0  0  0
  -17.3414   12.1584   23.4467 H   0  0  0  0  0  0  0  0  0  0  0  0
  -17.5082   13.8421   23.9102 H   0  0  0  0  0  0  0  0  0  0  0  0
  1  2  1  0  0  0  0
  1 10  1  0  0  0  0
  1 11  1  0  0  0  0
  1 12  1  0  0  0  0
  2  3  1  0  0  0  0
  3  4  1  0  0  0  0
  3 13  1  0  0  0  0
  3 14  1  0  0  0  0
  4  5  2  0  0  0  0
  4  9  1  0  0  0  0
  5  6  1  0  0  0  0
  6  7  2  0  0  0  0
  7  8  1  0  0  0  0
  7  9  1  0  0  0  0
  8 15  1  0  0  0  0
  8 16  1  0  0  0  0
M  END
$$$$
