MD_1_clus1
  MOE2019           3D

 19 19  0  0  0  0  0  0  0  0999 V2000
  -14.0143   13.7883   23.0027 Br  0  0  0  0  0  0  0  0  0  0  0  0
  -15.6647   12.7505   23.3733 C   0  0  0  0  0  0  0  0  0  0  0  0
  -16.6944   13.2404   24.1959 C   0  0  0  0  0  0  0  0  0  0  0  0
  -17.7329   12.3752   23.9733 N   0  0  0  0  0  0  0  0  0  0  0  0
  -19.1072   12.6796   24.4077 C   0  0  0  0  0  0  0  0  0  0  0  0
  -19.3145   12.6206   25.9196 C   0  0  0  0  0  0  0  0  0  0  0  0
  -18.9829   13.9349   26.4737 O   0  0  0  0  0  0  0  0  0  0  0  0
  -19.1000   13.9652   27.9043 C   0  0  0  0  0  0  0  0  0  0  0  0
  -17.4586   11.3568   23.1243 N   0  0  0  0  0  0  0  0  0  0  0  0
  -16.2003   11.6329   22.6826 C   0  0  0  0  0  0  0  0  0  0  0  0
  -16.7240   14.1373   24.8027 H   0  0  0  0  0  0  0  0  0  0  0  0
  -19.2191   13.6834   23.9891 H   0  0  0  0  0  0  0  0  0  0  0  0
  -19.8377   12.0241   23.9259 H   0  0  0  0  0  0  0  0  0  0  0  0
  -20.3392   12.3483   26.1850 H   0  0  0  0  0  0  0  0  0  0  0  0
  -18.5919   11.9228   26.3515 H   0  0  0  0  0  0  0  0  0  0  0  0
  -18.5708   14.8712   28.2138 H   0  0  0  0  0  0  0  0  0  0  0  0
  -20.1428   14.0669   28.2161 H   0  0  0  0  0  0  0  0  0  0  0  0
  -18.7265   12.9904   28.2249 H   0  0  0  0  0  0  0  0  0  0  0  0
  -15.6946   10.9730   21.9880 H   0  0  0  0  0  0  0  0  0  0  0  0
  1  2  1  0  0  0  0
  2  3  2  0  0  0  0
  2 10  1  0  0  0  0
  3  4  1  0  0  0  0
  3 11  1  0  0  0  0
  4  5  1  0  0  0  0
  4  9  1  0  0  0  0
  5  6  1  0  0  0  0
  5 12  1  0  0  0  0
  5 13  1  0  0  0  0
  6  7  1  0  0  0  0
  6 14  1  0  0  0  0
  6 15  1  0  0  0  0
  7  8  1  0  0  0  0
  8 16  1  0  0  0  0
  8 17  1  0  0  0  0
  8 18  1  0  0  0  0
  9 10  2  0  0  0  0
 10 19  1  0  0  0  0
M  END
$$$$
