MD_1_clus1
  MOE2019           3D

 27 28  0  0  0  0  0  0  0  0999 V2000
  -20.0025   13.9801   25.1175 C   0  0  0  0  0  0  0  0  0  0  0  0
  -19.7401   14.1011   26.5017 O   0  0  0  0  0  0  0  0  0  0  0  0
  -19.2993   15.2504   26.9257 C   0  0  0  0  0  0  0  0  0  0  0  0
  -20.1830   16.3197   27.0711 C   0  0  0  0  0  0  0  0  0  0  0  0
  -19.7516   17.4927   27.6644 C   0  0  0  0  0  0  0  0  0  0  0  0
  -18.4318   17.6513   27.9780 C   0  0  0  0  0  0  0  0  0  0  0  0
  -17.5084   16.6294   27.6808 C   0  0  0  0  0  0  0  0  0  0  0  0
  -16.2233   16.8375   28.0027 N   0  0  0  0  0  0  0  0  0  0  0  0
  -15.3891   16.0629   28.7901 C   0  0  0  0  0  0  0  0  0  0  0  0
  -14.3288   16.5006   29.0442 O   0  0  0  0  0  0  0  0  0  0  0  0
  -15.9079   14.7518   29.3326 C   0  0  0  0  0  0  0  0  0  0  0  0
  -16.4209   13.7977   28.1756 C   0  0  0  0  0  0  0  0  0  0  0  0
  -16.8013   14.4155   26.8866 C   0  0  0  0  0  0  0  0  0  0  0  0
  -17.8870   15.4200   27.1130 C   0  0  0  0  0  0  0  0  0  0  0  0
  -20.9036   14.5033   24.7885 H   0  0  0  0  0  0  0  0  0  0  0  0
  -19.2517   14.4668   24.4889 H   0  0  0  0  0  0  0  0  0  0  0  0
  -20.2117   12.9300   24.8983 H   0  0  0  0  0  0  0  0  0  0  0  0
  -21.2070   16.2414   26.7148 H   0  0  0  0  0  0  0  0  0  0  0  0
  -20.4636   18.2871   27.8733 H   0  0  0  0  0  0  0  0  0  0  0  0
  -18.0110   18.5667   28.3867 H   0  0  0  0  0  0  0  0  0  0  0  0
  -15.8042   17.6953   27.6773 H   0  0  0  0  0  0  0  0  0  0  0  0
  -15.1105   14.2727   29.9042 H   0  0  0  0  0  0  0  0  0  0  0  0
  -16.8041   14.9164   29.9357 H   0  0  0  0  0  0  0  0  0  0  0  0
  -15.7520   12.9536   27.9916 H   0  0  0  0  0  0  0  0  0  0  0  0
  -17.3358   13.2884   28.4849 H   0  0  0  0  0  0  0  0  0  0  0  0
  -15.9846   14.8570   26.3127 H   0  0  0  0  0  0  0  0  0  0  0  0
  -17.1733   13.5525   26.3316 H   0  0  0  0  0  0  0  0  0  0  0  0
  1  2  1  0  0  0  0
  1 15  1  0  0  0  0
  1 16  1  0  0  0  0
  1 17  1  0  0  0  0
  2  3  1  0  0  0  0
  3  4  1  0  0  0  0
  3 14  2  0  0  0  0
  4  5  2  0  0  0  0
  4 18  1  0  0  0  0
  5  6  1  0  0  0  0
  5 19  1  0  0  0  0
  6  7  2  0  0  0  0
  6 20  1  0  0  0  0
  7  8  1  0  0  0  0
  7 14  1  0  0  0  0
  8  9  1  0  0  0  0
  8 21  1  0  0  0  0
  9 10  2  0  0  0  0
  9 11  1  0  0  0  0
 11 12  1  0  0  0  0
 11 22  1  0  0  0  0
 11 23  1  0  0  0  0
 12 13  1  0  0  0  0
 12 24  1  0  0  0  0
 12 25  1  0  0  0  0
 13 14  1  0  0  0  0
 13 26  1  0  0  0  0
 13 27  1  0  0  0  0
M  END
$$$$
