MD_3_clus0
  MOE2019           3D

 26 26  0  0  1  0  0  0  0  0999 V2000
  -16.5199   13.6148   24.5047 C   0  0  0  0  0  0  0  0  0  0  0  0
  -17.9323   13.1836   24.8051 C   0  0  3  0  0  0  0  0  0  0  0  0
  -18.1738   11.7415   24.3790 C   0  0  0  0  0  0  0  0  0  0  0  0
  -19.5362   11.4542   24.6140 O   0  0  0  0  0  0  0  0  0  0  0  0
  -18.2838   13.3138   26.2129 N   0  0  0  0  0  0  0  0  0  0  0  0
  -17.6639   12.3806   27.1819 C   0  0  0  0  0  0  0  0  0  0  0  0
  -19.4143   14.0427   26.5402 C   0  0  0  0  0  0  0  0  0  0  0  0
  -20.4046   13.2084   26.8192 N   0  0  0  0  0  0  0  0  0  0  0  0
  -21.5713   13.7641   27.2959 C   0  0  0  0  0  0  0  0  0  0  0  0
  -21.8308   15.0939   27.2109 C   0  0  0  0  0  0  0  0  0  0  0  0
  -20.8210   15.9625   26.6953 C   0  0  0  0  0  0  0  0  0  0  0  0
  -19.5991   15.3746   26.3104 C   0  0  0  0  0  0  0  0  0  0  0  0
  -18.5352   16.1331   25.9260 F   0  0  0  0  0  0  0  0  0  0  0  0
  -16.2849   14.5964   24.9197 H   0  0  0  0  0  0  0  0  0  0  0  0
  -15.6935   13.0062   24.8777 H   0  0  0  0  0  0  0  0  0  0  0  0
  -16.3832   13.7401   23.4290 H   0  0  0  0  0  0  0  0  0  0  0  0
  -18.5756   13.7902   24.1619 H   0  0  0  0  0  0  0  0  0  0  0  0
  -18.0125   11.6549   23.3012 H   0  0  0  0  0  0  0  0  0  0  0  0
  -17.6058   10.8954   24.7733 H   0  0  0  0  0  0  0  0  0  0  0  0
  -19.8445   11.9798   25.3735 H   0  0  0  0  0  0  0  0  0  0  0  0
  -18.0622   11.3726   27.0409 H   0  0  0  0  0  0  0  0  0  0  0  0
  -16.6064   12.3063   26.9138 H   0  0  0  0  0  0  0  0  0  0  0  0
  -17.8539   12.5447   28.2457 H   0  0  0  0  0  0  0  0  0  0  0  0
  -22.1487   13.0247   27.8460 H   0  0  0  0  0  0  0  0  0  0  0  0
  -22.7407   15.3731   27.7362 H   0  0  0  0  0  0  0  0  0  0  0  0
  -20.8690   17.0368   26.5396 H   0  0  0  0  0  0  0  0  0  0  0  0
  1  2  1  0  0  0  0
  1 14  1  0  0  0  0
  1 15  1  0  0  0  0
  1 16  1  0  0  0  0
  2  3  1  0  0  0  0
  2  5  1  0  0  0  0
  2 17  1  0  0  0  0
  3  4  1  0  0  0  0
  3 18  1  0  0  0  0
  3 19  1  0  0  0  0
  4 20  1  0  0  0  0
  5  6  1  0  0  0  0
  5  7  1  0  0  0  0
  6 21  1  0  0  0  0
  6 22  1  0  0  0  0
  6 23  1  0  0  0  0
  7  8  1  0  0  0  0
  7 12  2  0  0  0  0
  8  9  2  0  0  0  0
  9 10  1  0  0  0  0
  9 24  1  0  0  0  0
 10 11  2  0  0  0  0
 10 25  1  0  0  0  0
 11 12  1  0  0  0  0
 11 26  1  0  0  0  0
 12 13  1  0  0  0  0
M  END
$$$$
