MD_3_clus4
  MOE2019           3D

 32 33  0  0  0  0  0  0  0  0999 V2000
  -23.6756    8.2348   32.0717 C   0  0  0  0  0  0  0  0  0  0  0  0
  -23.4094    9.6188   32.6873 C   0  0  0  0  0  0  0  0  0  0  0  0
  -23.1004   10.6651   31.6685 N   0  0  0  0  0  0  0  0  0  0  0  0
  -22.3080   10.3687   30.5742 C   0  0  0  0  0  0  0  0  0  0  0  0
  -22.3197   11.5739   29.9349 C   0  0  0  0  0  0  0  0  0  0  0  0
  -21.4330   11.8101   28.8898 N   0  0  0  0  0  0  0  0  0  0  0  0
  -21.2623   12.9592   28.2560 C   0  0  0  0  0  0  0  0  0  0  0  0
  -21.7029   14.0152   28.5981 O   0  0  0  0  0  0  0  0  0  0  0  0
  -20.1463   12.8413   27.2029 C   0  0  0  0  0  0  0  0  0  0  0  0
  -19.4191   14.1661   27.0439 C   0  0  0  0  0  0  0  0  0  0  0  0
  -18.7065   14.0254   25.7171 C   0  0  0  0  0  0  0  0  0  0  0  0
  -19.6002   13.2658   24.8365 C   0  0  0  0  0  0  0  0  0  0  0  0
  -20.7612   12.7704   25.7765 C   0  0  0  0  0  0  0  0  0  0  0  0
  -22.9595   12.5621   30.7216 C   0  0  0  0  0  0  0  0  0  0  0  0
  -23.5659   11.9706   31.7254 N   0  0  0  0  0  0  0  0  0  0  0  0
  -23.8536    7.5817   32.9281 H   0  0  0  0  0  0  0  0  0  0  0  0
  -24.5679    8.3094   31.4456 H   0  0  0  0  0  0  0  0  0  0  0  0
  -22.7977    7.8220   31.5716 H   0  0  0  0  0  0  0  0  0  0  0  0
  -24.2815   10.0019   33.2229 H   0  0  0  0  0  0  0  0  0  0  0  0
  -22.6351    9.5205   33.4534 H   0  0  0  0  0  0  0  0  0  0  0  0
  -21.7563    9.4590   30.3739 H   0  0  0  0  0  0  0  0  0  0  0  0
  -20.8651   11.0614   28.5225 H   0  0  0  0  0  0  0  0  0  0  0  0
  -19.4089   12.0529   27.3660 H   0  0  0  0  0  0  0  0  0  0  0  0
  -20.0336   15.0683   27.0121 H   0  0  0  0  0  0  0  0  0  0  0  0
  -18.6468   14.3605   27.7904 H   0  0  0  0  0  0  0  0  0  0  0  0
  -18.4322   15.0416   25.4270 H   0  0  0  0  0  0  0  0  0  0  0  0
  -17.7308   13.5585   25.8662 H   0  0  0  0  0  0  0  0  0  0  0  0
  -19.9042   13.9219   24.0177 H   0  0  0  0  0  0  0  0  0  0  0  0
  -19.0400   12.4680   24.3450 H   0  0  0  0  0  0  0  0  0  0  0  0
  -21.0087   11.7436   25.4991 H   0  0  0  0  0  0  0  0  0  0  0  0
  -21.6984   13.3281   25.7259 H   0  0  0  0  0  0  0  0  0  0  0  0
  -23.0184   13.6417   30.6661 H   0  0  0  0  0  0  0  0  0  0  0  0
  1  2  1  0  0  0  0
  1 16  1  0  0  0  0
  1 17  1  0  0  0  0
  1 18  1  0  0  0  0
  2  3  1  0  0  0  0
  2 19  1  0  0  0  0
  2 20  1  0  0  0  0
  3  4  1  0  0  0  0
  3 15  1  0  0  0  0
  4  5  2  0  0  0  0
  4 21  1  0  0  0  0
  5  6  1  0  0  0  0
  5 14  1  0  0  0  0
  6  7  1  0  0  0  0
  6 22  1  0  0  0  0
  7  8  2  0  0  0  0
  7  9  1  0  0  0  0
  9 10  1  0  0  0  0
  9 13  1  0  0  0  0
  9 23  1  0  0  0  0
 10 11  1  0  0  0  0
 10 24  1  0  0  0  0
 10 25  1  0  0  0  0
 11 12  1  0  0  0  0
 11 26  1  0  0  0  0
 11 27  1  0  0  0  0
 12 13  1  0  0  0  0
 12 28  1  0  0  0  0
 12 29  1  0  0  0  0
 13 30  1  0  0  0  0
 13 31  1  0  0  0  0
 14 15  2  0  0  0  0
 14 32  1  0  0  0  0
M  END
$$$$
