MD_2_clus1
  MOE2019           3D

 26 26  0  0  1  0  0  0  0  0999 V2000
  -15.7792   13.1153   25.0301 C   0  0  0  0  0  0  0  0  0  0  0  0
  -17.2947   13.1117   25.0463 C   0  0  3  0  0  0  0  0  0  0  0  0
  -17.9585   11.8149   24.6896 C   0  0  0  0  0  0  0  0  0  0  0  0
  -19.3735   11.8794   24.8433 O   0  0  0  0  0  0  0  0  0  0  0  0
  -17.8350   13.5258   26.3745 N   0  0  0  0  0  0  0  0  0  0  0  0
  -17.6856   12.5829   27.5325 C   0  0  0  0  0  0  0  0  0  0  0  0
  -18.7628   14.4635   26.5187 C   0  0  0  0  0  0  0  0  0  0  0  0
  -20.0152   14.0431   26.5762 N   0  0  0  0  0  0  0  0  0  0  0  0
  -21.0094   14.8829   26.6073 C   0  0  0  0  0  0  0  0  0  0  0  0
  -20.7512   16.2444   26.6400 C   0  0  0  0  0  0  0  0  0  0  0  0
  -19.4351   16.7567   26.4922 C   0  0  0  0  0  0  0  0  0  0  0  0
  -18.4102   15.8433   26.3620 C   0  0  0  0  0  0  0  0  0  0  0  0
  -17.1261   16.2831   26.2828 F   0  0  0  0  0  0  0  0  0  0  0  0
  -15.4052   12.8582   24.0369 H   0  0  0  0  0  0  0  0  0  0  0  0
  -15.4060   14.1054   25.2997 H   0  0  0  0  0  0  0  0  0  0  0  0
  -15.3556   12.4447   25.7809 H   0  0  0  0  0  0  0  0  0  0  0  0
  -17.6677   13.7939   24.2778 H   0  0  0  0  0  0  0  0  0  0  0  0
  -17.8850   11.5790   23.6249 H   0  0  0  0  0  0  0  0  0  0  0  0
  -17.5170   10.9657   25.2166 H   0  0  0  0  0  0  0  0  0  0  0  0
  -19.6013   12.4818   25.5746 H   0  0  0  0  0  0  0  0  0  0  0  0
  -16.6390   12.5193   27.8409 H   0  0  0  0  0  0  0  0  0  0  0  0
  -18.2754   12.9064   28.3946 H   0  0  0  0  0  0  0  0  0  0  0  0
  -18.0925   11.6057   27.2604 H   0  0  0  0  0  0  0  0  0  0  0  0
  -22.0340   14.5326   26.7097 H   0  0  0  0  0  0  0  0  0  0  0  0
  -21.6194   16.8857   26.7687 H   0  0  0  0  0  0  0  0  0  0  0  0
  -19.2393   17.8197   26.6132 H   0  0  0  0  0  0  0  0  0  0  0  0
  1  2  1  0  0  0  0
  1 14  1  0  0  0  0
  1 15  1  0  0  0  0
  1 16  1  0  0  0  0
  2  3  1  0  0  0  0
  2  5  1  0  0  0  0
  2 17  1  0  0  0  0
  3  4  1  0  0  0  0
  3 18  1  0  0  0  0
  3 19  1  0  0  0  0
  4 20  1  0  0  0  0
  5  6  1  0  0  0  0
  5  7  1  0  0  0  0
  6 21  1  0  0  0  0
  6 22  1  0  0  0  0
  6 23  1  0  0  0  0
  7  8  1  0  0  0  0
  7 12  2  0  0  0  0
  8  9  2  0  0  0  0
  9 10  1  0  0  0  0
  9 24  1  0  0  0  0
 10 11  2  0  0  0  0
 10 25  1  0  0  0  0
 11 12  1  0  0  0  0
 11 26  1  0  0  0  0
 12 13  1  0  0  0  0
M  END
$$$$
