MD_1_clus0
  MOE2019           3D

 16 16  0  0  0  0  0  0  0  0999 V2000
  -17.8278   16.2933   26.6283 Br  0  0  0  0  0  0  0  0  0  0  0  0
  -18.3315   14.5049   25.9310 C   0  0  0  0  0  0  0  0  0  0  0  0
  -18.9250   13.5522   26.6947 C   0  0  0  0  0  0  0  0  0  0  0  0
  -19.1110   12.5772   25.8083 N   0  0  0  0  0  0  0  0  0  0  0  0
  -19.7013   11.3080   26.1225 C   0  0  0  0  0  0  0  0  0  0  0  0
  -21.2656   11.4414   25.9675 C   0  0  0  0  0  0  0  0  0  0  0  0
  -21.7554   10.1618   25.9766 O   0  0  0  0  0  0  0  0  0  0  0  0
  -18.8189   12.8143   24.4892 N   0  0  0  0  0  0  0  0  0  0  0  0
  -18.2437   14.0343   24.6027 C   0  0  0  0  0  0  0  0  0  0  0  0
  -19.3934   13.6496   27.6665 H   0  0  0  0  0  0  0  0  0  0  0  0
  -19.2309   10.5423   25.5001 H   0  0  0  0  0  0  0  0  0  0  0  0
  -19.4484   10.9822   27.1345 H   0  0  0  0  0  0  0  0  0  0  0  0
  -21.6627   12.0250   26.8020 H   0  0  0  0  0  0  0  0  0  0  0  0
  -21.4635   11.8741   24.9832 H   0  0  0  0  0  0  0  0  0  0  0  0
  -22.0795    9.9113   25.0934 H   0  0  0  0  0  0  0  0  0  0  0  0
  -17.9181   14.5413   23.7026 H   0  0  0  0  0  0  0  0  0  0  0  0
  1  2  1  0  0  0  0
  2  3  2  0  0  0  0
  2  9  1  0  0  0  0
  3  4  1  0  0  0  0
  3 10  1  0  0  0  0
  4  5  1  0  0  0  0
  4  8  1  0  0  0  0
  5  6  1  0  0  0  0
  5 11  1  0  0  0  0
  5 12  1  0  0  0  0
  6  7  1  0  0  0  0
  6 13  1  0  0  0  0
  6 14  1  0  0  0  0
  7 15  1  0  0  0  0
  8  9  2  0  0  0  0
  9 16  1  0  0  0  0
M  END
$$$$
