MD_3_clus3
  MOE2019           3D

 26 28  0  0  0  0  0  0  0  0999 V2000
  -22.7621   12.2942   28.1275 O   0  0  0  0  0  0  0  0  0  0  0  0
  -21.9951   13.2390   28.2860 C   0  0  0  0  0  0  0  0  0  0  0  0
  -22.1766   14.1209   29.2279 N   0  0  0  0  0  0  0  0  0  0  0  0
  -23.3501   14.2823   30.0803 C   0  0  0  0  0  0  0  0  0  0  0  0
  -24.5973   14.7013   29.3662 C   0  0  0  0  0  0  0  0  0  0  0  0
  -23.8068   15.6889   30.1646 C   0  0  0  0  0  0  0  0  0  0  0  0
  -20.8586   13.5745   27.3703 C   0  0  0  0  0  0  0  0  0  0  0  0
  -20.3548   14.9140   27.3526 C   0  0  0  0  0  0  0  0  0  0  0  0
  -19.2800   15.2799   26.5215 C   0  0  0  0  0  0  0  0  0  0  0  0
  -18.8116   14.3414   25.6752 C   0  0  0  0  0  0  0  0  0  0  0  0
  -17.8092   14.4990   24.7141 O   0  0  0  0  0  0  0  0  0  0  0  0
  -17.5576   13.1123   24.1866 C   0  0  0  0  0  0  0  0  0  0  0  0
  -18.6152   12.2984   24.7958 O   0  0  0  0  0  0  0  0  0  0  0  0
  -19.2747   13.0473   25.7040 C   0  0  0  0  0  0  0  0  0  0  0  0
  -20.3121   12.6199   26.5844 C   0  0  0  0  0  0  0  0  0  0  0  0
  -21.4177   14.6512   29.6292 H   0  0  0  0  0  0  0  0  0  0  0  0
  -23.2723   13.6849   30.9842 H   0  0  0  0  0  0  0  0  0  0  0  0
  -24.6354   14.9404   28.3081 H   0  0  0  0  0  0  0  0  0  0  0  0
  -25.5512   14.3411   29.7428 H   0  0  0  0  0  0  0  0  0  0  0  0
  -24.3029   15.9518   31.0940 H   0  0  0  0  0  0  0  0  0  0  0  0
  -23.2311   16.4972   29.7229 H   0  0  0  0  0  0  0  0  0  0  0  0
  -20.7546   15.6773   28.0156 H   0  0  0  0  0  0  0  0  0  0  0  0
  -18.8920   16.2932   26.4668 H   0  0  0  0  0  0  0  0  0  0  0  0
  -17.5146   13.0296   23.0898 H   0  0  0  0  0  0  0  0  0  0  0  0
  -16.6446   12.7366   24.6724 H   0  0  0  0  0  0  0  0  0  0  0  0
  -20.6294   11.5841   26.4990 H   0  0  0  0  0  0  0  0  0  0  0  0
  1  2  2  0  0  0  0
  2  3  1  0  0  0  0
  2  7  1  0  0  0  0
  3  4  1  0  0  0  0
  3 16  1  0  0  0  0
  4  5  1  0  0  0  0
  4  6  1  0  0  0  0
  4 17  1  0  0  0  0
  5  6  1  0  0  0  0
  5 18  1  0  0  0  0
  5 19  1  0  0  0  0
  6 20  1  0  0  0  0
  6 21  1  0  0  0  0
  7  8  1  0  0  0  0
  7 15  2  0  0  0  0
  8  9  2  0  0  0  0
  8 22  1  0  0  0  0
  9 10  1  0  0  0  0
  9 23  1  0  0  0  0
 10 11  1  0  0  0  0
 10 14  2  0  0  0  0
 11 12  1  0  0  0  0
 12 13  1  0  0  0  0
 12 24  1  0  0  0  0
 12 25  1  0  0  0  0
 13 14  1  0  0  0  0
 14 15  1  0  0  0  0
 15 26  1  0  0  0  0
M  END
$$$$
