MD_2_clus1
  MOE2019           3D

 16 16  0  0  0  0  0  0  0  0999 V2000
  -14.1678   13.1152   22.3359 C   0  0  0  0  0  0  0  0  0  0  0  0
  -15.4366   13.3087   22.9547 O   0  0  0  0  0  0  0  0  0  0  0  0
  -15.7918   12.3625   23.9833 C   0  0  0  0  0  0  0  0  0  0  0  0
  -17.1525   12.5941   24.6827 C   0  0  0  0  0  0  0  0  0  0  0  0
  -18.1473   11.7185   24.5477 N   0  0  0  0  0  0  0  0  0  0  0  0
  -19.1319   12.0746   25.4304 N   0  0  0  0  0  0  0  0  0  0  0  0
  -18.8241   13.1118   26.0944 C   0  0  0  0  0  0  0  0  0  0  0  0
  -19.7561   13.5852   27.0207 N   0  0  0  0  0  0  0  0  0  0  0  0
  -17.2226   13.6100   26.0058 S   0  0  0  0  0  0  0  0  0  0  0  0
  -14.2367   12.1599   21.8087 H   0  0  0  0  0  0  0  0  0  0  0  0
  -13.9824   13.9464   21.6512 H   0  0  0  0  0  0  0  0  0  0  0  0
  -13.3784   12.9514   23.0736 H   0  0  0  0  0  0  0  0  0  0  0  0
  -15.8663   11.3846   23.5020 H   0  0  0  0  0  0  0  0  0  0  0  0
  -14.9807   12.2684   24.7100 H   0  0  0  0  0  0  0  0  0  0  0  0
  -19.4098   14.1422   27.7938 H   0  0  0  0  0  0  0  0  0  0  0  0
  -20.3949   12.8597   27.3272 H   0  0  0  0  0  0  0  0  0  0  0  0
  1  2  1  0  0  0  0
  1 10  1  0  0  0  0
  1 11  1  0  0  0  0
  1 12  1  0  0  0  0
  2  3  1  0  0  0  0
  3  4  1  0  0  0  0
  3 13  1  0  0  0  0
  3 14  1  0  0  0  0
  4  5  2  0  0  0  0
  4  9  1  0  0  0  0
  5  6  1  0  0  0  0
  6  7  2  0  0  0  0
  7  8  1  0  0  0  0
  7  9  1  0  0  0  0
  8 15  1  0  0  0  0
  8 16  1  0  0  0  0
M  END
$$$$
