MD_3_clus4
  MOE2019           3D

 25 26  0  0  0  0  0  0  0  0999 V2000
  -22.7455   11.5320   32.0899 C   0  0  0  0  0  0  0  0  0  0  0  0
  -21.9892   11.5365   30.7485 C   0  0  0  0  0  0  0  0  0  0  0  0
  -21.1445   12.4874   30.2458 C   0  0  0  0  0  0  0  0  0  0  0  0
  -20.8346   12.0256   28.9078 C   0  0  0  0  0  0  0  0  0  0  0  0
  -21.4409   10.7847   28.7072 N   0  0  0  0  0  0  0  0  0  0  0  0
  -22.2554   10.5012   29.8457 O   0  0  0  0  0  0  0  0  0  0  0  0
  -20.0200   12.7424   27.8526 C   0  0  0  0  0  0  0  0  0  0  0  0
  -19.6489   13.9615   27.9295 O   0  0  0  0  0  0  0  0  0  0  0  0
  -19.8210   11.9879   26.7712 N   0  0  0  0  0  0  0  0  0  0  0  0
  -19.2998   12.3551   25.5410 C   0  0  0  0  0  0  0  0  0  0  0  0
  -18.7128   13.6106   25.1257 C   0  0  0  0  0  0  0  0  0  0  0  0
  -17.9345   13.3509   24.0458 N   0  0  0  0  0  0  0  0  0  0  0  0
  -18.1722   12.0298   23.7645 N   0  0  0  0  0  0  0  0  0  0  0  0
  -17.3346   11.3228   22.7489 C   0  0  0  0  0  0  0  0  0  0  0  0
  -18.9472   11.3996   24.7409 C   0  0  0  0  0  0  0  0  0  0  0  0
  -23.3510   12.4394   32.1339 H   0  0  0  0  0  0  0  0  0  0  0  0
  -23.2612   10.5837   32.2531 H   0  0  0  0  0  0  0  0  0  0  0  0
  -22.0019   11.5382   32.8893 H   0  0  0  0  0  0  0  0  0  0  0  0
  -20.7649   13.4051   30.6834 H   0  0  0  0  0  0  0  0  0  0  0  0
  -20.1774   11.0581   26.9331 H   0  0  0  0  0  0  0  0  0  0  0  0
  -18.7124   14.6253   25.5037 H   0  0  0  0  0  0  0  0  0  0  0  0
  -17.9740   10.8939   21.9733 H   0  0  0  0  0  0  0  0  0  0  0  0
  -16.5947   11.9993   22.3136 H   0  0  0  0  0  0  0  0  0  0  0  0
  -16.8154   10.5187   23.2761 H   0  0  0  0  0  0  0  0  0  0  0  0
  -19.0155   10.3223   24.6550 H   0  0  0  0  0  0  0  0  0  0  0  0
  1  2  1  0  0  0  0
  1 16  1  0  0  0  0
  1 17  1  0  0  0  0
  1 18  1  0  0  0  0
  2  3  2  0  0  0  0
  2  6  1  0  0  0  0
  3  4  1  0  0  0  0
  3 19  1  0  0  0  0
  4  5  2  0  0  0  0
  4  7  1  0  0  0  0
  5  6  1  0  0  0  0
  7  8  2  0  0  0  0
  7  9  1  0  0  0  0
  9 10  1  0  0  0  0
  9 20  1  0  0  0  0
 10 11  1  0  0  0  0
 10 15  2  0  0  0  0
 11 12  2  0  0  0  0
 11 21  1  0  0  0  0
 12 13  1  0  0  0  0
 13 14  1  0  0  0  0
 13 15  1  0  0  0  0
 14 22  1  0  0  0  0
 14 23  1  0  0  0  0
 14 24  1  0  0  0  0
 15 25  1  0  0  0  0
M  END
$$$$
