MD_1_clus2
  MOE2019           3D

 27 28  0  0  0  0  0  0  0  0999 V2000
  -16.9172   12.3729   22.9886 C   0  0  0  0  0  0  0  0  0  0  0  0
  -18.0934   13.2600   23.3281 C   0  0  0  0  0  0  0  0  0  0  0  0
  -19.2489   13.3062   22.5674 N   0  0  0  0  0  0  0  0  0  0  0  0
  -20.2334   14.0510   23.2417 N   0  0  0  0  0  0  0  0  0  0  0  0
  -19.6421   14.5298   24.3666 C   0  0  0  0  0  0  0  0  0  0  0  0
  -18.2769   14.0066   24.4052 C   0  0  0  0  0  0  0  0  0  0  0  0
  -17.4105   14.0531   25.6726 C   0  0  0  0  0  0  0  0  0  0  0  0
  -17.5098   15.4167   26.2026 N   0  0  0  0  0  0  0  0  0  0  0  0
  -17.0852   15.8801   27.4144 C   0  0  0  0  0  0  0  0  0  0  0  0
  -16.9326   15.0366   28.5032 C   0  0  0  0  0  0  0  0  0  0  0  0
  -16.6984   15.5237   29.7737 C   0  0  0  0  0  0  0  0  0  0  0  0
  -16.5347   16.9236   29.9601 C   0  0  0  0  0  0  0  0  0  0  0  0
  -16.7116   17.7268   28.8670 C   0  0  0  0  0  0  0  0  0  0  0  0
  -16.9115   17.2485   27.6087 C   0  0  0  0  0  0  0  0  0  0  0  0
  -17.0183   18.1076   26.5635 F   0  0  0  0  0  0  0  0  0  0  0  0
  -16.8652   12.2221   21.9083 H   0  0  0  0  0  0  0  0  0  0  0  0
  -15.9795   12.8649   23.2545 H   0  0  0  0  0  0  0  0  0  0  0  0
  -16.9326   11.3725   23.4244 H   0  0  0  0  0  0  0  0  0  0  0  0
  -19.3954   12.9080   21.6495 H   0  0  0  0  0  0  0  0  0  0  0  0
  -20.1681   15.1196   25.1074 H   0  0  0  0  0  0  0  0  0  0  0  0
  -17.8255   13.3232   26.3717 H   0  0  0  0  0  0  0  0  0  0  0  0
  -16.3770   13.7156   25.5629 H   0  0  0  0  0  0  0  0  0  0  0  0
  -17.4204   16.1158   25.4749 H   0  0  0  0  0  0  0  0  0  0  0  0
  -17.0822   13.9720   28.3463 H   0  0  0  0  0  0  0  0  0  0  0  0
  -16.6013   14.8882   30.6505 H   0  0  0  0  0  0  0  0  0  0  0  0
  -16.2732   17.3597   30.9215 H   0  0  0  0  0  0  0  0  0  0  0  0
  -16.5310   18.7951   28.9501 H   0  0  0  0  0  0  0  0  0  0  0  0
  1  2  1  0  0  0  0
  1 16  1  0  0  0  0
  1 17  1  0  0  0  0
  1 18  1  0  0  0  0
  2  3  1  0  0  0  0
  2  6  2  0  0  0  0
  3  4  1  0  0  0  0
  3 19  1  0  0  0  0
  4  5  2  0  0  0  0
  5  6  1  0  0  0  0
  5 20  1  0  0  0  0
  6  7  1  0  0  0  0
  7  8  1  0  0  0  0
  7 21  1  0  0  0  0
  7 22  1  0  0  0  0
  8  9  1  0  0  0  0
  8 23  1  0  0  0  0
  9 10  1  0  0  0  0
  9 14  2  0  0  0  0
 10 11  2  0  0  0  0
 10 24  1  0  0  0  0
 11 12  1  0  0  0  0
 11 25  1  0  0  0  0
 12 13  2  0  0  0  0
 12 26  1  0  0  0  0
 13 14  1  0  0  0  0
 13 27  1  0  0  0  0
 14 15  1  0  0  0  0
M  END
$$$$
