MD_2_clus1
  MOE2019           3D

 19 19  0  0  0  0  0  0  0  0999 V2000
  -17.8172   15.5237   26.4548 O   0  0  0  0  0  0  0  0  0  0  0  0
  -18.1399   14.3985   26.3772 C   0  0  0  0  0  0  0  0  0  0  0  0
  -18.9380   13.7568   27.2782 N   0  0  0  0  0  0  0  0  0  0  0  0
  -19.2701   14.5231   28.5378 C   0  0  0  0  0  0  0  0  0  0  0  0
  -20.4968   15.5164   28.2836 C   0  0  0  0  0  0  0  0  0  0  0  0
  -19.9061   16.6894   27.7113 O   0  0  0  0  0  0  0  0  0  0  0  0
  -19.3815   12.4554   27.1859 C   0  0  0  0  0  0  0  0  0  0  0  0
  -19.0839   11.7014   26.1091 C   0  0  0  0  0  0  0  0  0  0  0  0
  -18.2161   12.2427   25.1028 C   0  0  0  0  0  0  0  0  0  0  0  0
  -17.7310   11.0781   23.5709 Br  0  0  0  0  0  0  0  0  0  0  0  0
  -17.8643   13.5522   25.2138 C   0  0  0  0  0  0  0  0  0  0  0  0
  -19.6027   13.8439   29.3265 H   0  0  0  0  0  0  0  0  0  0  0  0
  -18.3999   15.0619   28.9203 H   0  0  0  0  0  0  0  0  0  0  0  0
  -21.1733   15.1496   27.5075 H   0  0  0  0  0  0  0  0  0  0  0  0
  -20.8798   15.6873   29.2936 H   0  0  0  0  0  0  0  0  0  0  0  0
  -19.2419   16.4267   27.0486 H   0  0  0  0  0  0  0  0  0  0  0  0
  -19.9773   12.1075   28.0206 H   0  0  0  0  0  0  0  0  0  0  0  0
  -19.3387   10.6476   26.0884 H   0  0  0  0  0  0  0  0  0  0  0  0
  -17.3706   14.0702   24.3979 H   0  0  0  0  0  0  0  0  0  0  0  0
  1  2  2  0  0  0  0
  2  3  1  0  0  0  0
  2 11  1  0  0  0  0
  3  4  1  0  0  0  0
  3  7  1  0  0  0  0
  4  5  1  0  0  0  0
  4 12  1  0  0  0  0
  4 13  1  0  0  0  0
  5  6  1  0  0  0  0
  5 14  1  0  0  0  0
  5 15  1  0  0  0  0
  6 16  1  0  0  0  0
  7  8  2  0  0  0  0
  7 17  1  0  0  0  0
  8  9  1  0  0  0  0
  8 18  1  0  0  0  0
  9 10  1  0  0  0  0
  9 11  2  0  0  0  0
 11 19  1  0  0  0  0
M  END
$$$$
