MD_3_clus2
  MOE2019           3D

 32 33  0  0  0  0  0  0  0  0999 V2000
  -20.8727   24.1161   24.9891 C   0  0  0  0  0  0  0  0  0  0  0  0
  -19.8858   23.1706   25.4580 O   0  0  0  0  0  0  0  0  0  0  0  0
  -20.2804   21.9494   25.6019 C   0  0  0  0  0  0  0  0  0  0  0  0
  -21.4147   21.5340   25.4172 O   0  0  0  0  0  0  0  0  0  0  0  0
  -19.2185   21.2383   25.9089 N   0  0  0  0  0  0  0  0  0  0  0  0
  -19.1090   19.9359   26.5693 C   0  0  0  0  0  0  0  0  0  0  0  0
  -17.8179   19.5397   26.9099 C   0  0  0  0  0  0  0  0  0  0  0  0
  -17.6130   18.2630   27.5536 C   0  0  0  0  0  0  0  0  0  0  0  0
  -18.7319   17.4549   27.7448 C   0  0  0  0  0  0  0  0  0  0  0  0
  -18.6303   16.0056   28.3062 C   0  0  0  0  0  0  0  0  0  0  0  0
  -18.5378   15.0256   27.2146 C   0  0  0  0  0  0  0  0  0  0  0  0
  -19.0021   13.7279   27.4117 C   0  0  0  0  0  0  0  0  0  0  0  0
  -18.8703   12.7754   26.4036 C   0  0  0  0  0  0  0  0  0  0  0  0
  -18.1779   13.0419   25.2954 N   0  0  0  0  0  0  0  0  0  0  0  0
  -17.6560   14.2794   25.1378 C   0  0  0  0  0  0  0  0  0  0  0  0
  -17.8704   15.3162   26.0099 C   0  0  0  0  0  0  0  0  0  0  0  0
  -19.9642   17.7922   27.1682 C   0  0  0  0  0  0  0  0  0  0  0  0
  -20.1105   19.0185   26.5694 C   0  0  0  0  0  0  0  0  0  0  0  0
  -21.6954   24.2021   25.7043 H   0  0  0  0  0  0  0  0  0  0  0  0
  -20.4932   25.1234   24.7977 H   0  0  0  0  0  0  0  0  0  0  0  0
  -21.4618   23.7503   24.1448 H   0  0  0  0  0  0  0  0  0  0  0  0
  -18.3492   21.7462   25.8522 H   0  0  0  0  0  0  0  0  0  0  0  0
  -16.9036   20.1239   26.8381 H   0  0  0  0  0  0  0  0  0  0  0  0
  -16.6109   17.9372   27.8225 H   0  0  0  0  0  0  0  0  0  0  0  0
  -17.6900   16.0397   28.8618 H   0  0  0  0  0  0  0  0  0  0  0  0
  -19.4189   15.7605   29.0205 H   0  0  0  0  0  0  0  0  0  0  0  0
  -19.6106   13.4976   28.2823 H   0  0  0  0  0  0  0  0  0  0  0  0
  -19.1485   11.7237   26.4379 H   0  0  0  0  0  0  0  0  0  0  0  0
  -17.0275   14.3950   24.2573 H   0  0  0  0  0  0  0  0  0  0  0  0
  -17.3466   16.2503   25.8202 H   0  0  0  0  0  0  0  0  0  0  0  0
  -20.8443   17.1590   27.2495 H   0  0  0  0  0  0  0  0  0  0  0  0
  -21.1588   19.2205   26.3653 H   0  0  0  0  0  0  0  0  0  0  0  0
  1  2  1  0  0  0  0
  1 19  1  0  0  0  0
  1 20  1  0  0  0  0
  1 21  1  0  0  0  0
  2  3  1  0  0  0  0
  3  4  2  0  0  0  0
  3  5  1  0  0  0  0
  5  6  1  0  0  0  0
  5 22  1  0  0  0  0
  6  7  1  0  0  0  0
  6 18  2  0  0  0  0
  7  8  2  0  0  0  0
  7 23  1  0  0  0  0
  8  9  1  0  0  0  0
  8 24  1  0  0  0  0
  9 10  1  0  0  0  0
  9 17  2  0  0  0  0
 10 11  1  0  0  0  0
 10 25  1  0  0  0  0
 10 26  1  0  0  0  0
 11 12  1  0  0  0  0
 11 16  2  0  0  0  0
 12 13  2  0  0  0  0
 12 27  1  0  0  0  0
 13 14  1  0  0  0  0
 13 28  1  0  0  0  0
 14 15  2  0  0  0  0
 15 16  1  0  0  0  0
 15 29  1  0  0  0  0
 16 30  1  0  0  0  0
 17 18  1  0  0  0  0
 17 31  1  0  0  0  0
 18 32  1  0  0  0  0
M  END
$$$$
