MD_1_clus7
  MOE2019           3D

 24 24  0  0  0  0  0  0  0  0999 V2000
  -15.5782   14.3008   28.5300 C   0  0  0  0  0  0  0  0  0  0  0  0
  -15.7097   15.4555   27.5866 C   0  0  0  0  0  0  0  0  0  0  0  0
  -15.5947   15.1318   26.1498 O   0  0  0  0  0  0  0  0  0  0  0  0
  -16.6437   14.5299   25.4949 C   0  0  0  0  0  0  0  0  0  0  0  0
  -17.8105   14.5317   25.9114 O   0  0  0  0  0  0  0  0  0  0  0  0
  -16.2934   14.0904   24.2302 N   0  0  0  0  0  0  0  0  0  0  0  0
  -17.3199   13.3886   23.4592 C   0  0  0  0  0  0  0  0  0  0  0  0
  -16.6949   12.4907   22.3560 C   0  0  0  0  0  0  0  0  0  0  0  0
  -15.6938   13.2369   21.6773 O   0  0  0  0  0  0  0  0  0  0  0  0
  -14.5446   13.5924   22.4584 C   0  0  0  0  0  0  0  0  0  0  0  0
  -15.0925   14.5762   23.5083 C   0  0  0  0  0  0  0  0  0  0  0  0
  -16.0132   13.4122   28.0664 H   0  0  0  0  0  0  0  0  0  0  0  0
  -14.5794   14.0211   28.8723 H   0  0  0  0  0  0  0  0  0  0  0  0
  -16.0582   14.4113   29.5047 H   0  0  0  0  0  0  0  0  0  0  0  0
  -16.6890   15.9377   27.6561 H   0  0  0  0  0  0  0  0  0  0  0  0
  -14.8855   16.1581   27.7315 H   0  0  0  0  0  0  0  0  0  0  0  0
  -17.9582   12.7954   24.1185 H   0  0  0  0  0  0  0  0  0  0  0  0
  -17.8291   14.2163   22.9586 H   0  0  0  0  0  0  0  0  0  0  0  0
  -16.4078   11.5651   22.8607 H   0  0  0  0  0  0  0  0  0  0  0  0
  -17.4837   12.2437   21.6411 H   0  0  0  0  0  0  0  0  0  0  0  0
  -14.0573   12.6910   22.8394 H   0  0  0  0  0  0  0  0  0  0  0  0
  -13.7910   13.9980   21.7788 H   0  0  0  0  0  0  0  0  0  0  0  0
  -15.1847   15.5694   23.0621 H   0  0  0  0  0  0  0  0  0  0  0  0
  -14.3861   14.5853   24.3422 H   0  0  0  0  0  0  0  0  0  0  0  0
  1  2  1  0  0  0  0
  1 12  1  0  0  0  0
  1 13  1  0  0  0  0
  1 14  1  0  0  0  0
  2  3  1  0  0  0  0
  2 15  1  0  0  0  0
  2 16  1  0  0  0  0
  3  4  1  0  0  0  0
  4  5  2  0  0  0  0
  4  6  1  0  0  0  0
  6  7  1  0  0  0  0
  6 11  1  0  0  0  0
  7  8  1  0  0  0  0
  7 17  1  0  0  0  0
  7 18  1  0  0  0  0
  8  9  1  0  0  0  0
  8 19  1  0  0  0  0
  8 20  1  0  0  0  0
  9 10  1  0  0  0  0
 10 11  1  0  0  0  0
 10 21  1  0  0  0  0
 10 22  1  0  0  0  0
 11 23  1  0  0  0  0
 11 24  1  0  0  0  0
M  END
$$$$
