MD_3_clus3
  MOE2019           3D

 29 30  0  0  1  0  0  0  0  0999 V2000
  -14.6329   13.1588   21.7928 C   0  0  0  0  0  0  0  0  0  0  0  0
  -15.9148   12.3883   21.7933 C   0  0  3  0  0  0  0  0  0  0  0  0
  -16.7544   13.1893   21.0365 O   0  0  0  0  0  0  0  0  0  0  0  0
  -16.5331   12.2266   23.1522 C   0  0  0  0  0  0  0  0  0  0  0  0
  -16.6650   10.9314   23.7507 C   0  0  0  0  0  0  0  0  0  0  0  0
  -17.3910   11.0313   24.8390 N   0  0  0  0  0  0  0  0  0  0  0  0
  -17.5251   12.3396   25.0268 N   0  0  0  0  0  0  0  0  0  0  0  0
  -17.1064   13.1277   24.0098 C   0  0  0  0  0  0  0  0  0  0  0  0
  -18.3451   12.8472   26.1505 C   0  0  0  0  0  0  0  0  0  0  0  0
  -19.8518   12.9733   25.8613 C   0  0  0  0  0  0  0  0  0  0  0  0
  -20.3993   13.7131   27.0946 C   0  0  0  0  0  0  0  0  0  0  0  0
  -19.2010   14.5279   27.6988 C   0  0  0  0  0  0  0  0  0  0  0  0
  -18.0361   14.3236   26.6920 C   0  0  0  0  0  0  0  0  0  0  0  0
  -14.2454   13.2762   20.7790 H   0  0  0  0  0  0  0  0  0  0  0  0
  -14.7918   14.1887   22.1187 H   0  0  0  0  0  0  0  0  0  0  0  0
  -13.7682   12.7721   22.3358 H   0  0  0  0  0  0  0  0  0  0  0  0
  -15.7693   11.4599   21.2360 H   0  0  0  0  0  0  0  0  0  0  0  0
  -17.6610   12.8336   21.0289 H   0  0  0  0  0  0  0  0  0  0  0  0
  -16.2519    9.9532   23.5392 H   0  0  0  0  0  0  0  0  0  0  0  0
  -17.2190   14.2052   24.0211 H   0  0  0  0  0  0  0  0  0  0  0  0
  -18.2845   12.1542   26.9936 H   0  0  0  0  0  0  0  0  0  0  0  0
  -20.0336   13.5203   24.9344 H   0  0  0  0  0  0  0  0  0  0  0  0
  -20.3095   11.9834   25.8035 H   0  0  0  0  0  0  0  0  0  0  0  0
  -21.2273   14.3304   26.7431 H   0  0  0  0  0  0  0  0  0  0  0  0
  -20.7426   13.0337   27.8766 H   0  0  0  0  0  0  0  0  0  0  0  0
  -19.3846   15.6039   27.6864 H   0  0  0  0  0  0  0  0  0  0  0  0
  -19.0338   14.1885   28.7236 H   0  0  0  0  0  0  0  0  0  0  0  0
  -17.0432   14.6052   27.0504 H   0  0  0  0  0  0  0  0  0  0  0  0
  -18.1517   15.0256   25.8644 H   0  0  0  0  0  0  0  0  0  0  0  0
  1  2  1  0  0  0  0
  1 14  1  0  0  0  0
  1 15  1  0  0  0  0
  1 16  1  0  0  0  0
  2  3  1  0  0  0  0
  2  4  1  0  0  0  0
  2 17  1  0  0  0  0
  3 18  1  0  0  0  0
  4  5  1  0  0  0  0
  4  8  2  0  0  0  0
  5  6  2  0  0  0  0
  5 19  1  0  0  0  0
  6  7  1  0  0  0  0
  7  8  1  0  0  0  0
  7  9  1  0  0  0  0
  8 20  1  0  0  0  0
  9 10  1  0  0  0  0
  9 13  1  0  0  0  0
  9 21  1  0  0  0  0
 10 11  1  0  0  0  0
 10 22  1  0  0  0  0
 10 23  1  0  0  0  0
 11 12  1  0  0  0  0
 11 24  1  0  0  0  0
 11 25  1  0  0  0  0
 12 13  1  0  0  0  0
 12 26  1  0  0  0  0
 12 27  1  0  0  0  0
 13 28  1  0  0  0  0
 13 29  1  0  0  0  0
M  END
$$$$
