MD_2_clus1
  MOE2019           3D

 24 24  0  0  0  0  0  0  0  0999 V2000
  -18.6417   14.1592   28.5755 C   0  0  0  0  0  0  0  0  0  0  0  0
  -18.8086   15.1960   27.3548 C   0  0  0  0  0  0  0  0  0  0  0  0
  -18.1842   14.5434   26.1678 O   0  0  0  0  0  0  0  0  0  0  0  0
  -18.8401   13.5459   25.4843 C   0  0  0  0  0  0  0  0  0  0  0  0
  -19.9757   13.1882   25.7060 O   0  0  0  0  0  0  0  0  0  0  0  0
  -18.1273   13.0111   24.4628 N   0  0  0  0  0  0  0  0  0  0  0  0
  -18.5986   11.8316   23.7775 C   0  0  0  0  0  0  0  0  0  0  0  0
  -17.9925   11.5057   22.4351 C   0  0  0  0  0  0  0  0  0  0  0  0
  -16.5581   11.7330   22.4782 O   0  0  0  0  0  0  0  0  0  0  0  0
  -16.0736   13.0176   23.0096 C   0  0  0  0  0  0  0  0  0  0  0  0
  -16.6636   13.2338   24.4094 C   0  0  0  0  0  0  0  0  0  0  0  0
  -19.6764   14.1352   28.9235 H   0  0  0  0  0  0  0  0  0  0  0  0
  -18.2704   13.1561   28.3550 H   0  0  0  0  0  0  0  0  0  0  0  0
  -18.0389   14.6041   29.3705 H   0  0  0  0  0  0  0  0  0  0  0  0
  -19.8425   15.3984   27.0660 H   0  0  0  0  0  0  0  0  0  0  0  0
  -18.3210   16.1498   27.5742 H   0  0  0  0  0  0  0  0  0  0  0  0
  -18.5406   10.9432   24.4110 H   0  0  0  0  0  0  0  0  0  0  0  0
  -19.6506   12.0977   23.6435 H   0  0  0  0  0  0  0  0  0  0  0  0
  -18.1992   10.4629   22.1823 H   0  0  0  0  0  0  0  0  0  0  0  0
  -18.3841   12.1374   21.6348 H   0  0  0  0  0  0  0  0  0  0  0  0
  -14.9826   12.9581   22.9881 H   0  0  0  0  0  0  0  0  0  0  0  0
  -16.3892   13.7423   22.2553 H   0  0  0  0  0  0  0  0  0  0  0  0
  -16.4050   14.2787   24.5994 H   0  0  0  0  0  0  0  0  0  0  0  0
  -16.1598   12.5616   25.1080 H   0  0  0  0  0  0  0  0  0  0  0  0
  1  2  1  0  0  0  0
  1 12  1  0  0  0  0
  1 13  1  0  0  0  0
  1 14  1  0  0  0  0
  2  3  1  0  0  0  0
  2 15  1  0  0  0  0
  2 16  1  0  0  0  0
  3  4  1  0  0  0  0
  4  5  2  0  0  0  0
  4  6  1  0  0  0  0
  6  7  1  0  0  0  0
  6 11  1  0  0  0  0
  7  8  1  0  0  0  0
  7 17  1  0  0  0  0
  7 18  1  0  0  0  0
  8  9  1  0  0  0  0
  8 19  1  0  0  0  0
  8 20  1  0  0  0  0
  9 10  1  0  0  0  0
 10 11  1  0  0  0  0
 10 21  1  0  0  0  0
 10 22  1  0  0  0  0
 11 23  1  0  0  0  0
 11 24  1  0  0  0  0
M  END
$$$$
