MD_2_clus2
  MOE2019           3D

 19 19  0  0  0  0  0  0  0  0999 V2000
  -22.3330   17.0777   26.5997 Br  0  0  0  0  0  0  0  0  0  0  0  0
  -20.9354   15.9082   27.3854 C   0  0  0  0  0  0  0  0  0  0  0  0
  -19.5926   15.9000   27.1068 C   0  0  0  0  0  0  0  0  0  0  0  0
  -19.1560   14.7414   27.7229 N   0  0  0  0  0  0  0  0  0  0  0  0
  -17.7725   14.2267   27.6856 C   0  0  0  0  0  0  0  0  0  0  0  0
  -17.4807   13.4757   26.3067 C   0  0  0  0  0  0  0  0  0  0  0  0
  -17.2737   14.4748   25.2975 O   0  0  0  0  0  0  0  0  0  0  0  0
  -16.5841   14.0042   24.1575 C   0  0  0  0  0  0  0  0  0  0  0  0
  -20.1143   13.9938   28.3440 N   0  0  0  0  0  0  0  0  0  0  0  0
  -21.2173   14.7831   28.2293 C   0  0  0  0  0  0  0  0  0  0  0  0
  -18.9086   16.5989   26.6400 H   0  0  0  0  0  0  0  0  0  0  0  0
  -17.1414   15.1061   27.8398 H   0  0  0  0  0  0  0  0  0  0  0  0
  -17.6344   13.4924   28.4821 H   0  0  0  0  0  0  0  0  0  0  0  0
  -16.6038   12.8233   26.3090 H   0  0  0  0  0  0  0  0  0  0  0  0
  -18.4082   12.9205   26.1418 H   0  0  0  0  0  0  0  0  0  0  0  0
  -16.9048   12.9856   23.9236 H   0  0  0  0  0  0  0  0  0  0  0  0
  -16.8641   14.6243   23.3030 H   0  0  0  0  0  0  0  0  0  0  0  0
  -15.5155   14.0020   24.3907 H   0  0  0  0  0  0  0  0  0  0  0  0
  -22.1102   14.4833   28.7626 H   0  0  0  0  0  0  0  0  0  0  0  0
  1  2  1  0  0  0  0
  2  3  2  0  0  0  0
  2 10  1  0  0  0  0
  3  4  1  0  0  0  0
  3 11  1  0  0  0  0
  4  5  1  0  0  0  0
  4  9  1  0  0  0  0
  5  6  1  0  0  0  0
  5 12  1  0  0  0  0
  5 13  1  0  0  0  0
  6  7  1  0  0  0  0
  6 14  1  0  0  0  0
  6 15  1  0  0  0  0
  7  8  1  0  0  0  0
  8 16  1  0  0  0  0
  8 17  1  0  0  0  0
  8 18  1  0  0  0  0
  9 10  2  0  0  0  0
 10 19  1  0  0  0  0
M  END
$$$$
