MD_2_clus1
  MOE2019           3D

 20 20  0  0  0  0  0  0  0  0999 V2000
  -19.9619   13.8629   27.5587 C   0  0  0  0  0  0  0  0  0  0  0  0
  -21.2196   13.2209   27.0282 C   0  0  0  0  0  0  0  0  0  0  0  0
  -22.3618   13.6638   27.6734 C   0  0  0  0  0  0  0  0  0  0  0  0
  -23.5744   13.0714   27.2107 C   0  0  0  0  0  0  0  0  0  0  0  0
  -23.5540   12.1136   26.2658 C   0  0  0  0  0  0  0  0  0  0  0  0
  -24.6752   11.4229   25.8773 N   0  0  0  0  0  0  0  0  0  0  0  0
  -22.2986   11.6965   25.4842 C   0  0  0  0  0  0  0  0  0  0  0  0
  -22.3085   11.0593   24.4371 O   0  0  0  0  0  0  0  0  0  0  0  0
  -21.2362   12.3663   25.9387 N   0  0  0  0  0  0  0  0  0  0  0  0
  -20.0041   12.1376   25.1421 C   0  0  0  0  0  0  0  0  0  0  0  0
  -19.3910   13.2114   28.2242 H   0  0  0  0  0  0  0  0  0  0  0  0
  -19.2566   14.2606   26.8267 H   0  0  0  0  0  0  0  0  0  0  0  0
  -20.2133   14.7427   28.1546 H   0  0  0  0  0  0  0  0  0  0  0  0
  -22.3629   14.3332   28.5269 H   0  0  0  0  0  0  0  0  0  0  0  0
  -24.5333   13.3482   27.6372 H   0  0  0  0  0  0  0  0  0  0  0  0
  -24.5756   10.5873   25.3127 H   0  0  0  0  0  0  0  0  0  0  0  0
  -25.6176   11.7883   25.9574 H   0  0  0  0  0  0  0  0  0  0  0  0
  -19.1054   12.2900   25.7440 H   0  0  0  0  0  0  0  0  0  0  0  0
  -19.8373   11.0867   24.8936 H   0  0  0  0  0  0  0  0  0  0  0  0
  -19.9947   12.7450   24.2333 H   0  0  0  0  0  0  0  0  0  0  0  0
  1  2  1  0  0  0  0
  1 11  1  0  0  0  0
  1 12  1  0  0  0  0
  1 13  1  0  0  0  0
  2  3  2  0  0  0  0
  2  9  1  0  0  0  0
  3  4  1  0  0  0  0
  3 14  1  0  0  0  0
  4  5  2  0  0  0  0
  4 15  1  0  0  0  0
  5  6  1  0  0  0  0
  5  7  1  0  0  0  0
  6 16  1  0  0  0  0
  6 17  1  0  0  0  0
  7  8  2  0  0  0  0
  7  9  1  0  0  0  0
  9 10  1  0  0  0  0
 10 18  1  0  0  0  0
 10 19  1  0  0  0  0
 10 20  1  0  0  0  0
M  END
$$$$
