MD_3_clus3
  MOE2019           3D

 29 31  0  0  0  0  0  0  0  0999 V2000
  -16.6856   10.9890   22.5988 C   0  0  0  0  0  0  0  0  0  0  0  0
  -16.6047   12.3692   23.1586 O   0  0  0  0  0  0  0  0  0  0  0  0
  -17.6112   12.7658   23.9555 C   0  0  0  0  0  0  0  0  0  0  0  0
  -17.2267   13.7575   24.9325 C   0  0  0  0  0  0  0  0  0  0  0  0
  -18.1921   14.1697   25.8916 C   0  0  0  0  0  0  0  0  0  0  0  0
  -19.3350   13.4419   26.0917 C   0  0  0  0  0  0  0  0  0  0  0  0
  -20.1778   13.5973   27.1308 N   0  0  0  0  0  0  0  0  0  0  0  0
  -21.2726   12.8444   26.8912 C   0  0  0  0  0  0  0  0  0  0  0  0
  -22.3740   12.7850   27.6808 N   0  0  0  0  0  0  0  0  0  0  0  0
  -22.6990   13.2685   28.9127 C   0  0  0  0  0  0  0  0  0  0  0  0
  -21.9615   14.0035   29.5459 O   0  0  0  0  0  0  0  0  0  0  0  0
  -24.0555   12.8152   29.3507 C   0  0  0  0  0  0  0  0  0  0  0  0
  -25.2182   13.3008   28.6177 C   0  0  0  0  0  0  0  0  0  0  0  0
  -24.9922   13.8421   30.0314 C   0  0  0  0  0  0  0  0  0  0  0  0
  -21.2422   11.8313   25.4309 S   0  0  0  0  0  0  0  0  0  0  0  0
  -19.6292   12.4445   25.1719 C   0  0  0  0  0  0  0  0  0  0  0  0
  -18.8125   12.0710   24.0798 C   0  0  0  0  0  0  0  0  0  0  0  0
  -17.4917   10.8786   21.8688 H   0  0  0  0  0  0  0  0  0  0  0  0
  -15.7566   10.7472   22.0766 H   0  0  0  0  0  0  0  0  0  0  0  0
  -16.6547   10.2760   23.4278 H   0  0  0  0  0  0  0  0  0  0  0  0
  -16.2768   14.2838   24.8940 H   0  0  0  0  0  0  0  0  0  0  0  0
  -18.0175   15.0647   26.4834 H   0  0  0  0  0  0  0  0  0  0  0  0
  -23.0494   12.1505   27.2794 H   0  0  0  0  0  0  0  0  0  0  0  0
  -24.0941   11.7931   29.7157 H   0  0  0  0  0  0  0  0  0  0  0  0
  -25.2219   14.0736   27.8551 H   0  0  0  0  0  0  0  0  0  0  0  0
  -26.0120   12.5765   28.4623 H   0  0  0  0  0  0  0  0  0  0  0  0
  -25.5080   13.4164   30.8870 H   0  0  0  0  0  0  0  0  0  0  0  0
  -24.4424   14.7142   30.3744 H   0  0  0  0  0  0  0  0  0  0  0  0
  -19.1983   11.4060   23.3110 H   0  0  0  0  0  0  0  0  0  0  0  0
  1  2  1  0  0  0  0
  1 18  1  0  0  0  0
  1 19  1  0  0  0  0
  1 20  1  0  0  0  0
  2  3  1  0  0  0  0
  3  4  1  0  0  0  0
  3 17  2  0  0  0  0
  4  5  2  0  0  0  0
  4 21  1  0  0  0  0
  5  6  1  0  0  0  0
  5 22  1  0  0  0  0
  6  7  1  0  0  0  0
  6 16  2  0  0  0  0
  7  8  2  0  0  0  0
  8  9  1  0  0  0  0
  8 15  1  0  0  0  0
  9 10  1  0  0  0  0
  9 23  1  0  0  0  0
 10 11  2  0  0  0  0
 10 12  1  0  0  0  0
 12 13  1  0  0  0  0
 12 14  1  0  0  0  0
 12 24  1  0  0  0  0
 13 14  1  0  0  0  0
 13 25  1  0  0  0  0
 13 26  1  0  0  0  0
 14 27  1  0  0  0  0
 14 28  1  0  0  0  0
 15 16  1  0  0  0  0
 16 17  1  0  0  0  0
 17 29  1  0  0  0  0
M  END
$$$$
