MD_3_clus1
  MOE2019           3D

 19 19  0  0  0  0  0  0  0  0999 V2000
  -19.3266   11.5452   25.7803 C   0  0  0  0  0  0  0  0  0  0  0  0
  -17.9267   11.2673   25.4361 C   0  0  0  0  0  0  0  0  0  0  0  0
  -17.5801   10.5571   24.5113 O   0  0  0  0  0  0  0  0  0  0  0  0
  -17.0411   11.8890   26.1750 N   0  0  0  0  0  0  0  0  0  0  0  0
  -15.5555   11.7243   25.9832 C   0  0  0  0  0  0  0  0  0  0  0  0
  -14.9506   13.0624   25.7378 C   0  0  0  0  0  0  0  0  0  0  0  0
  -13.9976   13.6051   26.6132 C   0  0  0  0  0  0  0  0  0  0  0  0
  -13.7038   14.8082   26.2180 N   0  0  0  0  0  0  0  0  0  0  0  0
  -14.4804   15.0412   25.0928 N   0  0  0  0  0  0  0  0  0  0  0  0
  -15.3181   14.0008   24.8081 C   0  0  0  0  0  0  0  0  0  0  0  0
  -19.4936   12.5138   26.2558 H   0  0  0  0  0  0  0  0  0  0  0  0
  -19.8793   11.6269   24.8413 H   0  0  0  0  0  0  0  0  0  0  0  0
  -19.7126   10.8496   26.5274 H   0  0  0  0  0  0  0  0  0  0  0  0
  -17.3753   12.3870   26.9862 H   0  0  0  0  0  0  0  0  0  0  0  0
  -15.1495   11.3711   26.9349 H   0  0  0  0  0  0  0  0  0  0  0  0
  -15.2745   10.9975   25.2166 H   0  0  0  0  0  0  0  0  0  0  0  0
  -13.4498   13.2492   27.4770 H   0  0  0  0  0  0  0  0  0  0  0  0
  -14.3626   15.8882   24.5520 H   0  0  0  0  0  0  0  0  0  0  0  0
  -16.0545   14.0826   24.0178 H   0  0  0  0  0  0  0  0  0  0  0  0
  1  2  1  0  0  0  0
  1 11  1  0  0  0  0
  1 12  1  0  0  0  0
  1 13  1  0  0  0  0
  2  3  2  0  0  0  0
  2  4  1  0  0  0  0
  4  5  1  0  0  0  0
  4 14  1  0  0  0  0
  5  6  1  0  0  0  0
  5 15  1  0  0  0  0
  5 16  1  0  0  0  0
  6  7  1  0  0  0  0
  6 10  2  0  0  0  0
  7  8  2  0  0  0  0
  7 17  1  0  0  0  0
  8  9  1  0  0  0  0
  9 10  1  0  0  0  0
  9 18  1  0  0  0  0
 10 19  1  0  0  0  0
M  END
$$$$
