MD_3_clus1
  MOE2019           3D

 16 16  0  0  0  0  0  0  0  0999 V2000
  -18.4989   11.4393   24.7178 Br  0  0  0  0  0  0  0  0  0  0  0  0
  -18.2913   13.0589   25.8458 C   0  0  0  0  0  0  0  0  0  0  0  0
  -18.4175   13.0538   27.1637 C   0  0  0  0  0  0  0  0  0  0  0  0
  -18.3325   14.4060   27.5317 N   0  0  0  0  0  0  0  0  0  0  0  0
  -18.5408   14.9396   28.8274 C   0  0  0  0  0  0  0  0  0  0  0  0
  -19.8679   15.7985   28.9472 C   0  0  0  0  0  0  0  0  0  0  0  0
  -19.7948   16.9633   28.1423 O   0  0  0  0  0  0  0  0  0  0  0  0
  -18.0540   15.2160   26.4898 N   0  0  0  0  0  0  0  0  0  0  0  0
  -18.0031   14.4258   25.4450 C   0  0  0  0  0  0  0  0  0  0  0  0
  -18.6824   12.2686   27.8615 H   0  0  0  0  0  0  0  0  0  0  0  0
  -18.4385   14.0745   29.4878 H   0  0  0  0  0  0  0  0  0  0  0  0
  -17.7955   15.6735   29.1446 H   0  0  0  0  0  0  0  0  0  0  0  0
  -20.7540   15.2008   28.7181 H   0  0  0  0  0  0  0  0  0  0  0  0
  -19.9206   16.0311   30.0134 H   0  0  0  0  0  0  0  0  0  0  0  0
  -19.2262   16.8260   27.3637 H   0  0  0  0  0  0  0  0  0  0  0  0
  -17.7756   14.8138   24.4593 H   0  0  0  0  0  0  0  0  0  0  0  0
  1  2  1  0  0  0  0
  2  3  2  0  0  0  0
  2  9  1  0  0  0  0
  3  4  1  0  0  0  0
  3 10  1  0  0  0  0
  4  5  1  0  0  0  0
  4  8  1  0  0  0  0
  5  6  1  0  0  0  0
  5 11  1  0  0  0  0
  5 12  1  0  0  0  0
  6  7  1  0  0  0  0
  6 13  1  0  0  0  0
  6 14  1  0  0  0  0
  7 15  1  0  0  0  0
  8  9  2  0  0  0  0
  9 16  1  0  0  0  0
M  END
$$$$
