MD_2_clus2
  MOE2019           3D

 26 26  0  0  1  0  0  0  0  0999 V2000
  -14.9275   10.5633   24.0937 C   0  0  0  0  0  0  0  0  0  0  0  0
  -16.2154   11.2757   23.6777 C   0  0  3  0  0  0  0  0  0  0  0  0
  -16.5157   11.1358   22.1317 C   0  0  0  0  0  0  0  0  0  0  0  0
  -16.5223    9.7620   21.7894 O   0  0  0  0  0  0  0  0  0  0  0  0
  -17.3881   10.7726   24.4837 N   0  0  0  0  0  0  0  0  0  0  0  0
  -17.7100    9.2906   24.5347 C   0  0  0  0  0  0  0  0  0  0  0  0
  -18.3422   11.6608   24.9355 C   0  0  0  0  0  0  0  0  0  0  0  0
  -19.6302   11.2705   24.6313 N   0  0  0  0  0  0  0  0  0  0  0  0
  -20.5361   12.0840   25.0509 C   0  0  0  0  0  0  0  0  0  0  0  0
  -20.3216   13.1900   25.9066 C   0  0  0  0  0  0  0  0  0  0  0  0
  -19.0054   13.4872   26.3071 C   0  0  0  0  0  0  0  0  0  0  0  0
  -17.9987   12.6400   25.8412 C   0  0  0  0  0  0  0  0  0  0  0  0
  -16.7273   12.8426   26.1167 F   0  0  0  0  0  0  0  0  0  0  0  0
  -14.9451    9.4921   23.8831 H   0  0  0  0  0  0  0  0  0  0  0  0
  -14.1463   11.0268   23.4878 H   0  0  0  0  0  0  0  0  0  0  0  0
  -14.5522   10.6895   25.1113 H   0  0  0  0  0  0  0  0  0  0  0  0
  -16.0670   12.3516   23.8061 H   0  0  0  0  0  0  0  0  0  0  0  0
  -17.4726   11.6133   21.9058 H   0  0  0  0  0  0  0  0  0  0  0  0
  -15.7624   11.6372   21.5188 H   0  0  0  0  0  0  0  0  0  0  0  0
  -17.1512    9.5182   21.0860 H   0  0  0  0  0  0  0  0  0  0  0  0
  -16.7761    8.7655   24.7473 H   0  0  0  0  0  0  0  0  0  0  0  0
  -18.5016    9.1227   25.2703 H   0  0  0  0  0  0  0  0  0  0  0  0
  -18.0136    8.9459   23.5434 H   0  0  0  0  0  0  0  0  0  0  0  0
  -21.5649   11.8264   24.8099 H   0  0  0  0  0  0  0  0  0  0  0  0
  -21.1974   13.7507   26.2241 H   0  0  0  0  0  0  0  0  0  0  0  0
  -18.8729   14.2570   27.0638 H   0  0  0  0  0  0  0  0  0  0  0  0
  1  2  1  0  0  0  0
  1 14  1  0  0  0  0
  1 15  1  0  0  0  0
  1 16  1  0  0  0  0
  2  3  1  0  0  0  0
  2  5  1  0  0  0  0
  2 17  1  0  0  0  0
  3  4  1  0  0  0  0
  3 18  1  0  0  0  0
  3 19  1  0  0  0  0
  4 20  1  0  0  0  0
  5  6  1  0  0  0  0
  5  7  1  0  0  0  0
  6 21  1  0  0  0  0
  6 22  1  0  0  0  0
  6 23  1  0  0  0  0
  7  8  1  0  0  0  0
  7 12  2  0  0  0  0
  8  9  2  0  0  0  0
  9 10  1  0  0  0  0
  9 24  1  0  0  0  0
 10 11  2  0  0  0  0
 10 25  1  0  0  0  0
 11 12  1  0  0  0  0
 11 26  1  0  0  0  0
 12 13  1  0  0  0  0
M  END
$$$$
