MD_2_clus4
  MOE2019           3D

 29 30  0  0  0  0  0  0  0  0999 V2000
  -16.8170   20.9536   27.3909 C   0  0  0  0  0  0  0  0  0  0  0  0
  -16.2559   19.8937   28.3052 C   0  0  0  0  0  0  0  0  0  0  0  0
  -16.7778   18.5738   28.0328 N   0  0  0  0  0  0  0  0  0  0  0  0
  -16.5490   17.8670   26.8950 C   0  0  0  0  0  0  0  0  0  0  0  0
  -17.4071   16.8118   27.0473 C   0  0  0  0  0  0  0  0  0  0  0  0
  -17.5657   15.8337   26.0836 N   0  0  0  0  0  0  0  0  0  0  0  0
  -18.1216   14.6894   26.3211 C   0  0  0  0  0  0  0  0  0  0  0  0
  -18.6150   14.3224   27.4246 O   0  0  0  0  0  0  0  0  0  0  0  0
  -17.7512   13.9194   25.0018 C   0  0  0  0  0  0  0  0  0  0  0  0
  -18.9135   12.8488   24.9621 C   0  0  0  0  0  0  0  0  0  0  0  0
  -17.7089   11.8770   24.6216 C   0  0  0  0  0  0  0  0  0  0  0  0
  -16.8198   12.7362   25.5756 C   0  0  0  0  0  0  0  0  0  0  0  0
  -17.8410   16.7622   28.3802 C   0  0  0  0  0  0  0  0  0  0  0  0
  -17.3088   17.8218   28.9935 N   0  0  0  0  0  0  0  0  0  0  0  0
  -16.3733   21.9284   27.6027 H   0  0  0  0  0  0  0  0  0  0  0  0
  -16.6127   20.7712   26.3336 H   0  0  0  0  0  0  0  0  0  0  0  0
  -17.9085   20.9517   27.3951 H   0  0  0  0  0  0  0  0  0  0  0  0
  -15.1810   20.0180   28.1450 H   0  0  0  0  0  0  0  0  0  0  0  0
  -16.4292   20.1346   29.3569 H   0  0  0  0  0  0  0  0  0  0  0  0
  -15.8115   18.0192   26.1168 H   0  0  0  0  0  0  0  0  0  0  0  0
  -17.1691   16.0045   25.1717 H   0  0  0  0  0  0  0  0  0  0  0  0
  -17.6323   14.4050   24.0286 H   0  0  0  0  0  0  0  0  0  0  0  0
  -19.3819   12.5809   25.9141 H   0  0  0  0  0  0  0  0  0  0  0  0
  -19.6023   13.0860   24.1460 H   0  0  0  0  0  0  0  0  0  0  0  0
  -17.7802   10.8265   24.9180 H   0  0  0  0  0  0  0  0  0  0  0  0
  -17.4055   11.8685   23.5712 H   0  0  0  0  0  0  0  0  0  0  0  0
  -15.7558   12.7385   25.3206 H   0  0  0  0  0  0  0  0  0  0  0  0
  -17.0105   12.4935   26.6253 H   0  0  0  0  0  0  0  0  0  0  0  0
  -18.3249   16.1052   29.0925 H   0  0  0  0  0  0  0  0  0  0  0  0
  1  2  1  0  0  0  0
  1 15  1  0  0  0  0
  1 16  1  0  0  0  0
  1 17  1  0  0  0  0
  2  3  1  0  0  0  0
  2 18  1  0  0  0  0
  2 19  1  0  0  0  0
  3  4  1  0  0  0  0
  3 14  1  0  0  0  0
  4  5  2  0  0  0  0
  4 20  1  0  0  0  0
  5  6  1  0  0  0  0
  5 13  1  0  0  0  0
  6  7  1  0  0  0  0
  6 21  1  0  0  0  0
  7  8  2  0  0  0  0
  7  9  1  0  0  0  0
  9 10  1  0  0  0  0
  9 12  1  0  0  0  0
  9 22  1  0  0  0  0
 10 11  1  0  0  0  0
 10 23  1  0  0  0  0
 10 24  1  0  0  0  0
 11 12  1  0  0  0  0
 11 25  1  0  0  0  0
 11 26  1  0  0  0  0
 12 27  1  0  0  0  0
 12 28  1  0  0  0  0
 13 14  2  0  0  0  0
 13 29  1  0  0  0  0
M  END
$$$$
