MD_1_clus2
  MOE2019           3D

 16 17  0  0  0  0  0  0  0  0999 V2000
  -17.3854   12.9202   25.8929 C   0  0  0  0  0  0  0  0  0  0  0  0
  -16.3427   14.5581   26.3034 Br  0  0  0  0  0  0  0  0  0  0  0  0
  -18.4712   12.5393   26.7319 C   0  0  0  0  0  0  0  0  0  0  0  0
  -19.1716   11.4703   26.3138 C   0  0  0  0  0  0  0  0  0  0  0  0
  -18.8614   10.7646   25.2215 N   0  0  0  0  0  0  0  0  0  0  0  0
  -17.8525   11.1133   24.4273 C   0  0  0  0  0  0  0  0  0  0  0  0
  -17.5518   10.3812   23.3308 N   0  0  0  0  0  0  0  0  0  0  0  0
  -16.5132   10.7555   22.5680 C   0  0  0  0  0  0  0  0  0  0  0  0
  -15.7232   11.8399   22.8549 C   0  0  0  0  0  0  0  0  0  0  0  0
  -15.9910   12.5226   23.9855 C   0  0  0  0  0  0  0  0  0  0  0  0
  -17.0606   12.1586   24.8048 C   0  0  0  0  0  0  0  0  0  0  0  0
  -18.5910   13.0599   27.6783 H   0  0  0  0  0  0  0  0  0  0  0  0
  -19.9155   10.9812   26.9380 H   0  0  0  0  0  0  0  0  0  0  0  0
  -16.3906   10.2004   21.6404 H   0  0  0  0  0  0  0  0  0  0  0  0
  -14.8776   12.0380   22.2012 H   0  0  0  0  0  0  0  0  0  0  0  0
  -15.3211   13.3176   24.3019 H   0  0  0  0  0  0  0  0  0  0  0  0
  1  2  1  0  0  0  0
  1  3  1  0  0  0  0
  1 11  2  0  0  0  0
  3  4  2  0  0  0  0
  3 12  1  0  0  0  0
  4  5  1  0  0  0  0
  4 13  1  0  0  0  0
  5  6  2  0  0  0  0
  6  7  1  0  0  0  0
  6 11  1  0  0  0  0
  7  8  2  0  0  0  0
  8  9  1  0  0  0  0
  8 14  1  0  0  0  0
  9 10  2  0  0  0  0
  9 15  1  0  0  0  0
 10 11  1  0  0  0  0
 10 16  1  0  0  0  0
M  END
$$$$
