MD_3_clus4
  MOE2019           3D

 26 28  0  0  0  0  0  0  0  0999 V2000
  -18.1494   14.0493   27.3163 O   0  0  0  0  0  0  0  0  0  0  0  0
  -17.8042   14.3322   26.2249 C   0  0  0  0  0  0  0  0  0  0  0  0
  -17.5576   15.6594   25.9415 N   0  0  0  0  0  0  0  0  0  0  0  0
  -17.5959   16.6677   26.9750 C   0  0  0  0  0  0  0  0  0  0  0  0
  -18.6501   17.7220   26.6990 C   0  0  0  0  0  0  0  0  0  0  0  0
  -17.1612   17.9858   26.4400 C   0  0  0  0  0  0  0  0  0  0  0  0
  -17.5225   13.4134   25.1022 C   0  0  0  0  0  0  0  0  0  0  0  0
  -16.5224   13.6442   24.1878 C   0  0  0  0  0  0  0  0  0  0  0  0
  -16.1857   12.7166   23.2024 C   0  0  0  0  0  0  0  0  0  0  0  0
  -16.9550   11.6284   23.1407 C   0  0  0  0  0  0  0  0  0  0  0  0
  -16.8379   10.5805   22.2585 O   0  0  0  0  0  0  0  0  0  0  0  0
  -17.6946    9.5602   22.7670 C   0  0  0  0  0  0  0  0  0  0  0  0
  -18.5670   10.2690   23.6500 O   0  0  0  0  0  0  0  0  0  0  0  0
  -18.0396   11.4381   23.9240 C   0  0  0  0  0  0  0  0  0  0  0  0
  -18.2815   12.2889   25.0041 C   0  0  0  0  0  0  0  0  0  0  0  0
  -17.1276   15.8642   25.0509 H   0  0  0  0  0  0  0  0  0  0  0  0
  -17.2305   16.4667   27.9792 H   0  0  0  0  0  0  0  0  0  0  0  0
  -19.3640   17.4924   25.9134 H   0  0  0  0  0  0  0  0  0  0  0  0
  -19.1120   18.3176   27.4821 H   0  0  0  0  0  0  0  0  0  0  0  0
  -16.6213   18.5910   27.1623 H   0  0  0  0  0  0  0  0  0  0  0  0
  -16.8162   18.0978   25.4166 H   0  0  0  0  0  0  0  0  0  0  0  0
  -15.8801   14.5207   24.1657 H   0  0  0  0  0  0  0  0  0  0  0  0
  -15.4132   12.8474   22.4490 H   0  0  0  0  0  0  0  0  0  0  0  0
  -18.1442    9.1028   21.8741 H   0  0  0  0  0  0  0  0  0  0  0  0
  -17.0649    8.9406   23.4226 H   0  0  0  0  0  0  0  0  0  0  0  0
  -19.0122   12.1228   25.7919 H   0  0  0  0  0  0  0  0  0  0  0  0
  1  2  2  0  0  0  0
  2  3  1  0  0  0  0
  2  7  1  0  0  0  0
  3  4  1  0  0  0  0
  3 16  1  0  0  0  0
  4  5  1  0  0  0  0
  4  6  1  0  0  0  0
  4 17  1  0  0  0  0
  5  6  1  0  0  0  0
  5 18  1  0  0  0  0
  5 19  1  0  0  0  0
  6 20  1  0  0  0  0
  6 21  1  0  0  0  0
  7  8  1  0  0  0  0
  7 15  2  0  0  0  0
  8  9  2  0  0  0  0
  8 22  1  0  0  0  0
  9 10  1  0  0  0  0
  9 23  1  0  0  0  0
 10 11  1  0  0  0  0
 10 14  2  0  0  0  0
 11 12  1  0  0  0  0
 12 13  1  0  0  0  0
 12 24  1  0  0  0  0
 12 25  1  0  0  0  0
 13 14  1  0  0  0  0
 14 15  1  0  0  0  0
 15 26  1  0  0  0  0
M  END
$$$$
