MD_2_clus0
  MOE2019           3D

 25 26  0  0  0  0  0  0  0  0999 V2000
  -23.3488   13.0463   32.1870 C   0  0  0  0  0  0  0  0  0  0  0  0
  -22.5376   12.7266   30.9455 C   0  0  0  0  0  0  0  0  0  0  0  0
  -21.7688   13.5441   30.1891 C   0  0  0  0  0  0  0  0  0  0  0  0
  -21.2931   12.7899   29.1284 C   0  0  0  0  0  0  0  0  0  0  0  0
  -21.9044   11.5973   29.1284 N   0  0  0  0  0  0  0  0  0  0  0  0
  -22.6996   11.5323   30.2637 O   0  0  0  0  0  0  0  0  0  0  0  0
  -20.3267   13.3786   28.0958 C   0  0  0  0  0  0  0  0  0  0  0  0
  -19.8972   14.5377   28.1094 O   0  0  0  0  0  0  0  0  0  0  0  0
  -19.9409   12.4646   27.1921 N   0  0  0  0  0  0  0  0  0  0  0  0
  -19.1363   12.6129   26.0793 C   0  0  0  0  0  0  0  0  0  0  0  0
  -18.7894   13.8582   25.4450 C   0  0  0  0  0  0  0  0  0  0  0  0
  -18.0442   13.5788   24.3825 N   0  0  0  0  0  0  0  0  0  0  0  0
  -17.9056   12.1790   24.3685 N   0  0  0  0  0  0  0  0  0  0  0  0
  -16.8293   11.5516   23.5305 C   0  0  0  0  0  0  0  0  0  0  0  0
  -18.6727   11.5668   25.3473 C   0  0  0  0  0  0  0  0  0  0  0  0
  -23.4274   12.2677   32.9491 H   0  0  0  0  0  0  0  0  0  0  0  0
  -22.9181   13.9443   32.6347 H   0  0  0  0  0  0  0  0  0  0  0  0
  -24.3598   13.4289   32.0315 H   0  0  0  0  0  0  0  0  0  0  0  0
  -21.3842   14.5330   30.4170 H   0  0  0  0  0  0  0  0  0  0  0  0
  -20.3789   11.5561   27.2283 H   0  0  0  0  0  0  0  0  0  0  0  0
  -19.0407   14.8895   25.6630 H   0  0  0  0  0  0  0  0  0  0  0  0
  -16.7417   12.1165   22.5991 H   0  0  0  0  0  0  0  0  0  0  0  0
  -15.9180   11.6966   24.1161 H   0  0  0  0  0  0  0  0  0  0  0  0
  -17.0293   10.5439   23.1587 H   0  0  0  0  0  0  0  0  0  0  0  0
  -18.7370   10.5012   25.5311 H   0  0  0  0  0  0  0  0  0  0  0  0
  1  2  1  0  0  0  0
  1 16  1  0  0  0  0
  1 17  1  0  0  0  0
  1 18  1  0  0  0  0
  2  3  2  0  0  0  0
  2  6  1  0  0  0  0
  3  4  1  0  0  0  0
  3 19  1  0  0  0  0
  4  5  2  0  0  0  0
  4  7  1  0  0  0  0
  5  6  1  0  0  0  0
  7  8  2  0  0  0  0
  7  9  1  0  0  0  0
  9 10  1  0  0  0  0
  9 20  1  0  0  0  0
 10 11  1  0  0  0  0
 10 15  2  0  0  0  0
 11 12  2  0  0  0  0
 11 21  1  0  0  0  0
 12 13  1  0  0  0  0
 13 14  1  0  0  0  0
 13 15  1  0  0  0  0
 14 22  1  0  0  0  0
 14 23  1  0  0  0  0
 14 24  1  0  0  0  0
 15 25  1  0  0  0  0
M  END
$$$$
