MD_3_clus1
  MOE2019           3D

 23 23  0  0  0  0  0  0  0  0999 V2000
  -18.5578   13.1368   28.2241 C   0  0  0  0  0  0  0  0  0  0  0  0
  -19.2804   12.9751   26.9393 N   0  0  0  0  0  0  0  0  0  0  0  0
  -18.7153   13.7720   25.8044 C   0  0  0  0  0  0  0  0  0  0  0  0
  -17.8129   12.9140   24.9636 C   0  0  0  0  0  0  0  0  0  0  0  0
  -18.4453   11.6815   24.5140 O   0  0  0  0  0  0  0  0  0  0  0  0
  -20.6407   12.7747   26.8283 C   0  0  0  0  0  0  0  0  0  0  0  0
  -21.4984   13.1319   27.8495 C   0  0  0  0  0  0  0  0  0  0  0  0
  -22.8539   12.9714   27.6609 C   0  0  0  0  0  0  0  0  0  0  0  0
  -23.2284   12.2644   26.4905 C   0  0  0  0  0  0  0  0  0  0  0  0
  -22.2518   11.8302   25.5821 C   0  0  0  0  0  0  0  0  0  0  0  0
  -20.9546   12.1696   25.6893 N   0  0  0  0  0  0  0  0  0  0  0  0
  -19.2220   13.0616   29.0890 H   0  0  0  0  0  0  0  0  0  0  0  0
  -17.7662   12.3971   28.3673 H   0  0  0  0  0  0  0  0  0  0  0  0
  -18.0624   14.1078   28.1434 H   0  0  0  0  0  0  0  0  0  0  0  0
  -19.4897   14.1750   25.1457 H   0  0  0  0  0  0  0  0  0  0  0  0
  -18.2723   14.7099   26.1478 H   0  0  0  0  0  0  0  0  0  0  0  0
  -17.4360   13.5531   24.1608 H   0  0  0  0  0  0  0  0  0  0  0  0
  -16.9951   12.5306   25.5785 H   0  0  0  0  0  0  0  0  0  0  0  0
  -19.3819   11.7031   24.7803 H   0  0  0  0  0  0  0  0  0  0  0  0
  -21.1168   13.5896   28.7579 H   0  0  0  0  0  0  0  0  0  0  0  0
  -23.5932   13.1833   28.4291 H   0  0  0  0  0  0  0  0  0  0  0  0
  -24.2828   12.1224   26.2685 H   0  0  0  0  0  0  0  0  0  0  0  0
  -22.5001   11.2028   24.7284 H   0  0  0  0  0  0  0  0  0  0  0  0
  1  2  1  0  0  0  0
  1 12  1  0  0  0  0
  1 13  1  0  0  0  0
  1 14  1  0  0  0  0
  2  3  1  0  0  0  0
  2  6  1  0  0  0  0
  3  4  1  0  0  0  0
  3 15  1  0  0  0  0
  3 16  1  0  0  0  0
  4  5  1  0  0  0  0
  4 17  1  0  0  0  0
  4 18  1  0  0  0  0
  5 19  1  0  0  0  0
  6  7  1  0  0  0  0
  6 11  2  0  0  0  0
  7  8  2  0  0  0  0
  7 20  1  0  0  0  0
  8  9  1  0  0  0  0
  8 21  1  0  0  0  0
  9 10  2  0  0  0  0
  9 22  1  0  0  0  0
 10 11  1  0  0  0  0
 10 23  1  0  0  0  0
M  END
$$$$
