MD_2_clus2
  MOE2019           3D

 16 17  0  0  0  0  0  0  0  0999 V2000
  -18.5636   10.3913   25.2307 Br  0  0  0  0  0  0  0  0  0  0  0  0
  -18.1241   12.3210   25.0852 C   0  0  0  0  0  0  0  0  0  0  0  0
  -17.5799   12.6930   23.8920 C   0  0  0  0  0  0  0  0  0  0  0  0
  -17.3749   14.0513   23.6412 C   0  0  0  0  0  0  0  0  0  0  0  0
  -17.6398   14.9709   24.6126 N   0  0  0  0  0  0  0  0  0  0  0  0
  -18.2805   14.5370   25.7652 C   0  0  0  0  0  0  0  0  0  0  0  0
  -18.6361   15.4988   26.7121 N   0  0  0  0  0  0  0  0  0  0  0  0
  -19.3103   15.0629   27.7790 C   0  0  0  0  0  0  0  0  0  0  0  0
  -19.5929   13.7635   28.0442 C   0  0  0  0  0  0  0  0  0  0  0  0
  -19.2358   12.7632   27.1751 C   0  0  0  0  0  0  0  0  0  0  0  0
  -18.5931   13.2057   26.0118 C   0  0  0  0  0  0  0  0  0  0  0  0
  -17.3283   11.9947   23.0971 H   0  0  0  0  0  0  0  0  0  0  0  0
  -16.9069   14.4110   22.7271 H   0  0  0  0  0  0  0  0  0  0  0  0
  -19.7036   15.9179   28.3242 H   0  0  0  0  0  0  0  0  0  0  0  0
  -19.8704   13.4628   29.0512 H   0  0  0  0  0  0  0  0  0  0  0  0
  -19.4337   11.7116   27.3661 H   0  0  0  0  0  0  0  0  0  0  0  0
  1  2  1  0  0  0  0
  2  3  1  0  0  0  0
  2 11  2  0  0  0  0
  3  4  2  0  0  0  0
  3 12  1  0  0  0  0
  4  5  1  0  0  0  0
  4 13  1  0  0  0  0
  5  6  2  0  0  0  0
  6  7  1  0  0  0  0
  6 11  1  0  0  0  0
  7  8  2  0  0  0  0
  8  9  1  0  0  0  0
  8 14  1  0  0  0  0
  9 10  2  0  0  0  0
  9 15  1  0  0  0  0
 10 11  1  0  0  0  0
 10 16  1  0  0  0  0
M  END
$$$$
