MD_1_clus0
  MOE2019           3D

 29 31  0  0  0  0  0  0  0  0999 V2000
  -22.8124   19.0363   25.4435 C   0  0  0  0  0  0  0  0  0  0  0  0
  -22.1815   17.7690   25.1945 O   0  0  0  0  0  0  0  0  0  0  0  0
  -22.0185   16.8816   26.2449 C   0  0  0  0  0  0  0  0  0  0  0  0
  -22.1961   17.3360   27.5637 C   0  0  0  0  0  0  0  0  0  0  0  0
  -22.0286   16.4331   28.6448 C   0  0  0  0  0  0  0  0  0  0  0  0
  -21.7768   15.1549   28.3609 C   0  0  0  0  0  0  0  0  0  0  0  0
  -21.6575   14.2916   29.3319 N   0  0  0  0  0  0  0  0  0  0  0  0
  -21.3245   13.1256   28.7993 C   0  0  0  0  0  0  0  0  0  0  0  0
  -21.1298   11.9930   29.5639 N   0  0  0  0  0  0  0  0  0  0  0  0
  -21.2013   11.7843   30.9174 C   0  0  0  0  0  0  0  0  0  0  0  0
  -21.2567   12.6373   31.7644 O   0  0  0  0  0  0  0  0  0  0  0  0
  -20.8853   10.3596   31.3857 C   0  0  0  0  0  0  0  0  0  0  0  0
  -21.7473    9.1899   30.9195 C   0  0  0  0  0  0  0  0  0  0  0  0
  -21.9660    9.7104   32.2954 C   0  0  0  0  0  0  0  0  0  0  0  0
  -21.4004   12.9911   26.9763 S   0  0  0  0  0  0  0  0  0  0  0  0
  -21.5906   14.6878   27.0366 C   0  0  0  0  0  0  0  0  0  0  0  0
  -21.5711   15.5785   25.9486 C   0  0  0  0  0  0  0  0  0  0  0  0
  -23.3626   19.4275   24.5839 H   0  0  0  0  0  0  0  0  0  0  0  0
  -23.6151   18.8881   26.1691 H   0  0  0  0  0  0  0  0  0  0  0  0
  -22.0881   19.8009   25.7384 H   0  0  0  0  0  0  0  0  0  0  0  0
  -22.3601   18.3802   27.8151 H   0  0  0  0  0  0  0  0  0  0  0  0
  -22.1659   16.8373   29.6451 H   0  0  0  0  0  0  0  0  0  0  0  0
  -20.9370   11.2135   28.9528 H   0  0  0  0  0  0  0  0  0  0  0  0
  -19.8775   10.3153   31.7877 H   0  0  0  0  0  0  0  0  0  0  0  0
  -22.5976    9.3604   30.2656 H   0  0  0  0  0  0  0  0  0  0  0  0
  -21.1945    8.2746   30.7344 H   0  0  0  0  0  0  0  0  0  0  0  0
  -21.6236    9.1384   33.1526 H   0  0  0  0  0  0  0  0  0  0  0  0
  -22.9271   10.2057   32.3974 H   0  0  0  0  0  0  0  0  0  0  0  0
  -21.2821   15.3090   24.9369 H   0  0  0  0  0  0  0  0  0  0  0  0
  1  2  1  0  0  0  0
  1 18  1  0  0  0  0
  1 19  1  0  0  0  0
  1 20  1  0  0  0  0
  2  3  1  0  0  0  0
  3  4  1  0  0  0  0
  3 17  2  0  0  0  0
  4  5  2  0  0  0  0
  4 21  1  0  0  0  0
  5  6  1  0  0  0  0
  5 22  1  0  0  0  0
  6  7  1  0  0  0  0
  6 16  2  0  0  0  0
  7  8  2  0  0  0  0
  8  9  1  0  0  0  0
  8 15  1  0  0  0  0
  9 10  1  0  0  0  0
  9 23  1  0  0  0  0
 10 11  2  0  0  0  0
 10 12  1  0  0  0  0
 12 13  1  0  0  0  0
 12 14  1  0  0  0  0
 12 24  1  0  0  0  0
 13 14  1  0  0  0  0
 13 25  1  0  0  0  0
 13 26  1  0  0  0  0
 14 27  1  0  0  0  0
 14 28  1  0  0  0  0
 15 16  1  0  0  0  0
 16 17  1  0  0  0  0
 17 29  1  0  0  0  0
M  END
$$$$
