MD_3_clus4
  MOE2019           3D

 32 33  0  0  0  0  0  0  0  0999 V2000
  -20.6650   20.5418   28.9800 C   0  0  0  0  0  0  0  0  0  0  0  0
  -19.3849   19.8318   28.9557 O   0  0  0  0  0  0  0  0  0  0  0  0
  -19.3542   18.8442   28.0100 C   0  0  0  0  0  0  0  0  0  0  0  0
  -19.9595   19.0034   26.9615 O   0  0  0  0  0  0  0  0  0  0  0  0
  -18.7125   17.7457   28.4769 N   0  0  0  0  0  0  0  0  0  0  0  0
  -18.4874   16.4998   27.8440 C   0  0  0  0  0  0  0  0  0  0  0  0
  -18.5160   15.4098   28.7324 C   0  0  0  0  0  0  0  0  0  0  0  0
  -18.3525   14.1038   28.2939 C   0  0  0  0  0  0  0  0  0  0  0  0
  -18.1670   13.8893   26.9402 C   0  0  0  0  0  0  0  0  0  0  0  0
  -18.1013   12.4485   26.5398 C   0  0  0  0  0  0  0  0  0  0  0  0
  -17.4652   12.1731   25.1813 C   0  0  0  0  0  0  0  0  0  0  0  0
  -18.2801   11.8092   24.1492 C   0  0  0  0  0  0  0  0  0  0  0  0
  -17.6794   11.5635   22.9331 C   0  0  0  0  0  0  0  0  0  0  0  0
  -16.3734   11.5407   22.7683 N   0  0  0  0  0  0  0  0  0  0  0  0
  -15.6071   11.9216   23.7562 C   0  0  0  0  0  0  0  0  0  0  0  0
  -16.0958   12.2246   25.0212 C   0  0  0  0  0  0  0  0  0  0  0  0
  -18.0936   15.0006   26.0356 C   0  0  0  0  0  0  0  0  0  0  0  0
  -18.2513   16.2441   26.5164 C   0  0  0  0  0  0  0  0  0  0  0  0
  -20.9065   20.9574   29.9620 H   0  0  0  0  0  0  0  0  0  0  0  0
  -20.6769   21.3320   28.2250 H   0  0  0  0  0  0  0  0  0  0  0  0
  -21.4843   19.8807   28.6872 H   0  0  0  0  0  0  0  0  0  0  0  0
  -18.4399   17.8058   29.4464 H   0  0  0  0  0  0  0  0  0  0  0  0
  -18.6842   15.5776   29.7931 H   0  0  0  0  0  0  0  0  0  0  0  0
  -18.5144   13.2344   28.9256 H   0  0  0  0  0  0  0  0  0  0  0  0
  -17.4502   11.8826   27.2084 H   0  0  0  0  0  0  0  0  0  0  0  0
  -19.0917   11.9879   26.5229 H   0  0  0  0  0  0  0  0  0  0  0  0
  -19.3429   11.7089   24.3553 H   0  0  0  0  0  0  0  0  0  0  0  0
  -18.2575   11.2526   22.0660 H   0  0  0  0  0  0  0  0  0  0  0  0
  -14.5361   11.8883   23.5688 H   0  0  0  0  0  0  0  0  0  0  0  0
  -15.4562   12.3939   25.8833 H   0  0  0  0  0  0  0  0  0  0  0  0
  -18.0153   14.7259   24.9863 H   0  0  0  0  0  0  0  0  0  0  0  0
  -18.2842   17.1149   25.8674 H   0  0  0  0  0  0  0  0  0  0  0  0
  1  2  1  0  0  0  0
  1 19  1  0  0  0  0
  1 20  1  0  0  0  0
  1 21  1  0  0  0  0
  2  3  1  0  0  0  0
  3  4  2  0  0  0  0
  3  5  1  0  0  0  0
  5  6  1  0  0  0  0
  5 22  1  0  0  0  0
  6  7  1  0  0  0  0
  6 18  2  0  0  0  0
  7  8  2  0  0  0  0
  7 23  1  0  0  0  0
  8  9  1  0  0  0  0
  8 24  1  0  0  0  0
  9 10  1  0  0  0  0
  9 17  2  0  0  0  0
 10 11  1  0  0  0  0
 10 25  1  0  0  0  0
 10 26  1  0  0  0  0
 11 12  1  0  0  0  0
 11 16  2  0  0  0  0
 12 13  2  0  0  0  0
 12 27  1  0  0  0  0
 13 14  1  0  0  0  0
 13 28  1  0  0  0  0
 14 15  2  0  0  0  0
 15 16  1  0  0  0  0
 15 29  1  0  0  0  0
 16 30  1  0  0  0  0
 17 18  1  0  0  0  0
 17 31  1  0  0  0  0
 18 32  1  0  0  0  0
M  END
$$$$
