MD_1_clus1
  MOE2019           3D

 18 18  0  0  0  0  0  0  0  0999 V2000
  -20.3180   13.9369   26.6994 C   0  0  0  0  0  0  0  0  0  0  0  0
  -21.3020   12.7649   26.8654 C   0  0  0  0  0  0  0  0  0  0  0  0
  -21.4042   12.3762   28.2644 N   0  0  0  0  0  0  0  0  0  0  0  0
  -22.3353   12.9022   29.1634 C   0  0  0  0  0  0  0  0  0  0  0  0
  -23.1583   13.6418   28.7773 O   0  0  0  0  0  0  0  0  0  0  0  0
  -22.0951   12.5247   30.5676 C   0  0  0  0  0  0  0  0  0  0  0  0
  -22.6558   13.2813   31.6294 C   0  0  0  0  0  0  0  0  0  0  0  0
  -22.3666   12.6285   32.7405 N   0  0  0  0  0  0  0  0  0  0  0  0
  -21.6482   11.5447   32.4036 N   0  0  0  0  0  0  0  0  0  0  0  0
  -21.4088   11.4955   31.0558 N   0  0  0  0  0  0  0  0  0  0  0  0
  -19.8428   13.9920   25.7181 H   0  0  0  0  0  0  0  0  0  0  0  0
  -20.7326   14.9155   26.9495 H   0  0  0  0  0  0  0  0  0  0  0  0
  -19.4900   13.8214   27.4016 H   0  0  0  0  0  0  0  0  0  0  0  0
  -22.2865   13.1323   26.5666 H   0  0  0  0  0  0  0  0  0  0  0  0
  -21.0261   11.8686   26.3042 H   0  0  0  0  0  0  0  0  0  0  0  0
  -20.7527   11.6915   28.6172 H   0  0  0  0  0  0  0  0  0  0  0  0
  -23.2954   14.1519   31.7063 H   0  0  0  0  0  0  0  0  0  0  0  0
  -21.3255   10.7492   32.9386 H   0  0  0  0  0  0  0  0  0  0  0  0
  1  2  1  0  0  0  0
  1 11  1  0  0  0  0
  1 12  1  0  0  0  0
  1 13  1  0  0  0  0
  2  3  1  0  0  0  0
  2 14  1  0  0  0  0
  2 15  1  0  0  0  0
  3  4  1  0  0  0  0
  3 16  1  0  0  0  0
  4  5  2  0  0  0  0
  4  6  1  0  0  0  0
  6  7  1  0  0  0  0
  6 10  2  0  0  0  0
  7  8  2  0  0  0  0
  7 17  1  0  0  0  0
  8  9  1  0  0  0  0
  9 10  1  0  0  0  0
  9 18  1  0  0  0  0
M  END
$$$$
