MD_3_clus4
  MOE2019           3D

 23 24  0  0  0  0  0  0  0  0999 V2000
  -21.1281   14.7975   31.3270 C   0  0  0  0  0  0  0  0  0  0  0  0
  -21.6856   14.0502   30.1277 N   0  3  0  0  0  0  0  0  0  0  0  0
  -21.3499   14.8684   28.8896 C   0  0  0  0  0  0  0  0  0  0  0  0
  -22.0248   14.2151   27.7153 C   0  0  0  0  0  0  0  0  0  0  0  0
  -23.0461   13.3049   27.7819 N   0  0  0  0  0  0  0  0  0  0  0  0
  -23.3516   12.8569   26.4816 N   0  0  0  0  0  0  0  0  0  0  0  0
  -22.6084   13.5940   25.6699 C   0  0  0  0  0  0  0  0  0  0  0  0
  -22.3938   13.4163   24.3039 C   0  0  0  0  0  0  0  0  0  0  0  0
  -21.2647   14.0736   23.6991 C   0  0  0  0  0  0  0  0  0  0  0  0
  -20.3357   14.8196   24.5481 C   0  0  0  0  0  0  0  0  0  0  0  0
  -20.6529   15.0072   25.8770 C   0  0  0  0  0  0  0  0  0  0  0  0
  -21.8107   14.4767   26.3837 N   0  0  0  0  0  0  0  0  0  0  0  0
  -20.4687   15.6452   31.1340 H   0  0  0  0  0  0  0  0  0  0  0  0
  -21.9569   15.1728   31.9278 H   0  0  0  0  0  0  0  0  0  0  0  0
  -20.6947   14.0590   32.0025 H   0  0  0  0  0  0  0  0  0  0  0  0
  -21.2267   13.1313   30.0199 H   0  0  0  0  0  0  0  0  0  0  0  0
  -21.8087   15.8549   28.9768 H   0  0  0  0  0  0  0  0  0  0  0  0
  -20.2637   14.8761   28.7841 H   0  0  0  0  0  0  0  0  0  0  0  0
  -22.9883   12.6908   23.7578 H   0  0  0  0  0  0  0  0  0  0  0  0
  -20.9975   13.8235   22.6779 H   0  0  0  0  0  0  0  0  0  0  0  0
  -19.4993   15.3118   24.0628 H   0  0  0  0  0  0  0  0  0  0  0  0
  -20.0284   15.6095   26.5249 H   0  0  0  0  0  0  0  0  0  0  0  0
  -22.6852   13.8376   30.2782 H   0  0  0  0  0  0  0  0  0  0  0  0
  1  2  1  0  0  0  0
  1 13  1  0  0  0  0
  1 14  1  0  0  0  0
  1 15  1  0  0  0  0
  2  3  1  0  0  0  0
  2 16  1  0  0  0  0
  2 23  1  0  0  0  0
  3  4  1  0  0  0  0
  3 17  1  0  0  0  0
  3 18  1  0  0  0  0
  4  5  2  0  0  0  0
  4 12  1  0  0  0  0
  5  6  1  0  0  0  0
  6  7  2  0  0  0  0
  7  8  1  0  0  0  0
  7 12  1  0  0  0  0
  8  9  2  0  0  0  0
  8 19  1  0  0  0  0
  9 10  1  0  0  0  0
  9 20  1  0  0  0  0
 10 11  2  0  0  0  0
 10 21  1  0  0  0  0
 11 12  1  0  0  0  0
 11 22  1  0  0  0  0
M  CHG  1   2   1
M  END
$$$$
