MD_2_clus1
  MOE2019           3D

 27 28  0  0  0  0  0  0  0  0999 V2000
  -18.2562   14.2464   28.3947 C   0  0  0  0  0  0  0  0  0  0  0  0
  -18.5590   14.3873   27.0339 O   0  0  0  0  0  0  0  0  0  0  0  0
  -19.4115   13.4072   26.5436 C   0  0  0  0  0  0  0  0  0  0  0  0
  -18.9170   12.3422   25.8130 C   0  0  0  0  0  0  0  0  0  0  0  0
  -19.6983   11.3671   25.2460 C   0  0  0  0  0  0  0  0  0  0  0  0
  -21.0307   11.4004   25.4266 C   0  0  0  0  0  0  0  0  0  0  0  0
  -21.6147   12.4597   26.1558 C   0  0  0  0  0  0  0  0  0  0  0  0
  -23.0106   12.5423   26.1763 N   0  0  0  0  0  0  0  0  0  0  0  0
  -23.7680   12.8065   27.2193 C   0  0  0  0  0  0  0  0  0  0  0  0
  -24.9806   12.8790   27.1250 O   0  0  0  0  0  0  0  0  0  0  0  0
  -23.1010   13.0100   28.5393 C   0  0  0  0  0  0  0  0  0  0  0  0
  -22.3486   14.3876   28.5849 C   0  0  0  0  0  0  0  0  0  0  0  0
  -21.4549   14.7068   27.3414 C   0  0  0  0  0  0  0  0  0  0  0  0
  -20.8164   13.5180   26.6440 C   0  0  0  0  0  0  0  0  0  0  0  0
  -19.1733   14.4481   28.9545 H   0  0  0  0  0  0  0  0  0  0  0  0
  -17.8833   13.2484   28.6397 H   0  0  0  0  0  0  0  0  0  0  0  0
  -17.5605   15.0563   28.6276 H   0  0  0  0  0  0  0  0  0  0  0  0
  -17.8697   12.2185   25.5514 H   0  0  0  0  0  0  0  0  0  0  0  0
  -19.3004   10.4995   24.7263 H   0  0  0  0  0  0  0  0  0  0  0  0
  -21.6766   10.6157   25.0412 H   0  0  0  0  0  0  0  0  0  0  0  0
  -23.4721   12.0739   25.4111 H   0  0  0  0  0  0  0  0  0  0  0  0
  -23.7873   13.0732   29.3859 H   0  0  0  0  0  0  0  0  0  0  0  0
  -22.5232   12.0990   28.7103 H   0  0  0  0  0  0  0  0  0  0  0  0
  -22.9834   15.2667   28.7107 H   0  0  0  0  0  0  0  0  0  0  0  0
  -21.6479   14.3521   29.4214 H   0  0  0  0  0  0  0  0  0  0  0  0
  -22.1525   15.1486   26.6263 H   0  0  0  0  0  0  0  0  0  0  0  0
  -20.6896   15.4495   27.5733 H   0  0  0  0  0  0  0  0  0  0  0  0
  1  2  1  0  0  0  0
  1 15  1  0  0  0  0
  1 16  1  0  0  0  0
  1 17  1  0  0  0  0
  2  3  1  0  0  0  0
  3  4  1  0  0  0  0
  3 14  2  0  0  0  0
  4  5  2  0  0  0  0
  4 18  1  0  0  0  0
  5  6  1  0  0  0  0
  5 19  1  0  0  0  0
  6  7  2  0  0  0  0
  6 20  1  0  0  0  0
  7  8  1  0  0  0  0
  7 14  1  0  0  0  0
  8  9  1  0  0  0  0
  8 21  1  0  0  0  0
  9 10  2  0  0  0  0
  9 11  1  0  0  0  0
 11 12  1  0  0  0  0
 11 22  1  0  0  0  0
 11 23  1  0  0  0  0
 12 13  1  0  0  0  0
 12 24  1  0  0  0  0
 12 25  1  0  0  0  0
 13 14  1  0  0  0  0
 13 26  1  0  0  0  0
 13 27  1  0  0  0  0
M  END
$$$$
