MD_3_clus0
  MOE2019           3D

 20 20  0  0  0  0  0  0  0  0999 V2000
  -21.2320   13.5712   28.6069 C   0  0  0  0  0  0  0  0  0  0  0  0
  -21.8481   12.9106   27.3899 C   0  0  0  0  0  0  0  0  0  0  0  0
  -21.0164   12.8354   26.2937 C   0  0  0  0  0  0  0  0  0  0  0  0
  -21.5798   12.2436   25.0596 C   0  0  0  0  0  0  0  0  0  0  0  0
  -22.8791   11.7562   25.0035 C   0  0  0  0  0  0  0  0  0  0  0  0
  -23.3328   11.2369   23.8160 N   0  0  0  0  0  0  0  0  0  0  0  0
  -23.7995   11.8973   26.2035 C   0  0  0  0  0  0  0  0  0  0  0  0
  -24.9949   11.4595   26.2697 O   0  0  0  0  0  0  0  0  0  0  0  0
  -23.2438   12.5698   27.2529 N   0  0  0  0  0  0  0  0  0  0  0  0
  -24.1307   13.0230   28.3773 C   0  0  0  0  0  0  0  0  0  0  0  0
  -20.2846   13.0636   28.7979 H   0  0  0  0  0  0  0  0  0  0  0  0
  -21.1065   14.6406   28.4273 H   0  0  0  0  0  0  0  0  0  0  0  0
  -21.8327   13.6582   29.5136 H   0  0  0  0  0  0  0  0  0  0  0  0
  -19.9552   13.0429   26.3781 H   0  0  0  0  0  0  0  0  0  0  0  0
  -20.9426   12.0717   24.1987 H   0  0  0  0  0  0  0  0  0  0  0  0
  -24.0593   10.5334   23.8951 H   0  0  0  0  0  0  0  0  0  0  0  0
  -22.6503   11.1630   23.0706 H   0  0  0  0  0  0  0  0  0  0  0  0
  -23.8389   13.9507   28.8762 H   0  0  0  0  0  0  0  0  0  0  0  0
  -25.1886   12.9956   28.1017 H   0  0  0  0  0  0  0  0  0  0  0  0
  -24.0733   12.1927   29.0858 H   0  0  0  0  0  0  0  0  0  0  0  0
  1  2  1  0  0  0  0
  1 11  1  0  0  0  0
  1 12  1  0  0  0  0
  1 13  1  0  0  0  0
  2  3  2  0  0  0  0
  2  9  1  0  0  0  0
  3  4  1  0  0  0  0
  3 14  1  0  0  0  0
  4  5  2  0  0  0  0
  4 15  1  0  0  0  0
  5  6  1  0  0  0  0
  5  7  1  0  0  0  0
  6 16  1  0  0  0  0
  6 17  1  0  0  0  0
  7  8  2  0  0  0  0
  7  9  1  0  0  0  0
  9 10  1  0  0  0  0
 10 18  1  0  0  0  0
 10 19  1  0  0  0  0
 10 20  1  0  0  0  0
M  END
$$$$
