MD_1_clus1
  MOE2019           3D

 35 37  0  0  0  0  0  0  0  0999 V2000
  -14.8636   20.5421   27.6454 F   0  0  0  0  0  0  0  0  0  0  0  0
  -15.6439   19.4833   27.7661 C   0  0  0  0  0  0  0  0  0  0  0  0
  -15.2272   18.2250   27.2380 C   0  0  0  0  0  0  0  0  0  0  0  0
  -16.0303   17.0797   27.4024 C   0  0  0  0  0  0  0  0  0  0  0  0
  -17.2937   17.2269   27.9925 C   0  0  0  0  0  0  0  0  0  0  0  0
  -17.7377   18.4219   28.4485 C   0  0  0  0  0  0  0  0  0  0  0  0
  -16.8726   19.5674   28.3970 C   0  0  0  0  0  0  0  0  0  0  0  0
  -18.1222   16.2027   28.1883 N   0  0  0  0  0  0  0  0  0  0  0  0
  -19.3962   16.1229   27.4704 C   0  0  0  0  0  0  0  0  0  0  0  0
  -19.9631   14.6607   27.3486 C   0  0  0  0  0  0  0  0  0  0  0  0
  -18.8915   13.6592   27.0293 N   0  0  0  0  0  0  0  0  0  0  0  0
  -17.6182   13.8256   27.6972 C   0  0  0  0  0  0  0  0  0  0  0  0
  -17.6230   14.9537   28.6975 C   0  0  0  0  0  0  0  0  0  0  0  0
  -19.0893   12.6156   26.1866 C   0  0  0  0  0  0  0  0  0  0  0  0
  -20.1426   12.4144   25.5670 O   0  0  0  0  0  0  0  0  0  0  0  0
  -17.9396   11.7166   25.9698 C   0  0  0  0  0  0  0  0  0  0  0  0
  -16.8301   12.2152   25.0412 C   0  0  0  0  0  0  0  0  0  0  0  0
  -17.7323   11.0448   24.6449 C   0  0  0  0  0  0  0  0  0  0  0  0
  -14.2670   18.1229   26.7380 H   0  0  0  0  0  0  0  0  0  0  0  0
  -15.7016   16.1406   26.9638 H   0  0  0  0  0  0  0  0  0  0  0  0
  -18.6358   18.4487   29.0593 H   0  0  0  0  0  0  0  0  0  0  0  0
  -17.1932   20.4772   28.8999 H   0  0  0  0  0  0  0  0  0  0  0  0
  -20.1888   16.7312   27.9138 H   0  0  0  0  0  0  0  0  0  0  0  0
  -19.1767   16.4988   26.4675 H   0  0  0  0  0  0  0  0  0  0  0  0
  -20.5402   14.3006   28.2036 H   0  0  0  0  0  0  0  0  0  0  0  0
  -20.6911   14.6272   26.5333 H   0  0  0  0  0  0  0  0  0  0  0  0
  -17.3993   12.8823   28.2045 H   0  0  0  0  0  0  0  0  0  0  0  0
  -16.7797   14.1034   27.0530 H   0  0  0  0  0  0  0  0  0  0  0  0
  -16.6225   15.0800   29.1206 H   0  0  0  0  0  0  0  0  0  0  0  0
  -18.3762   14.6234   29.4176 H   0  0  0  0  0  0  0  0  0  0  0  0
  -17.5470   11.2320   26.8592 H   0  0  0  0  0  0  0  0  0  0  0  0
  -16.8288   12.9273   24.2210 H   0  0  0  0  0  0  0  0  0  0  0  0
  -15.7688   12.0097   25.1371 H   0  0  0  0  0  0  0  0  0  0  0  0
  -17.3633   10.0275   24.7352 H   0  0  0  0  0  0  0  0  0  0  0  0
  -18.3714   11.3020   23.8048 H   0  0  0  0  0  0  0  0  0  0  0  0
  1  2  1  0  0  0  0
  2  3  1  0  0  0  0
  2  7  2  0  0  0  0
  3  4  2  0  0  0  0
  3 19  1  0  0  0  0
  4  5  1  0  0  0  0
  4 20  1  0  0  0  0
  5  6  2  0  0  0  0
  5  8  1  0  0  0  0
  6  7  1  0  0  0  0
  6 21  1  0  0  0  0
  7 22  1  0  0  0  0
  8  9  1  0  0  0  0
  8 13  1  0  0  0  0
  9 10  1  0  0  0  0
  9 23  1  0  0  0  0
  9 24  1  0  0  0  0
 10 11  1  0  0  0  0
 10 25  1  0  0  0  0
 10 26  1  0  0  0  0
 11 12  1  0  0  0  0
 11 14  1  0  0  0  0
 12 13  1  0  0  0  0
 12 27  1  0  0  0  0
 12 28  1  0  0  0  0
 13 29  1  0  0  0  0
 13 30  1  0  0  0  0
 14 15  2  0  0  0  0
 14 16  1  0  0  0  0
 16 17  1  0  0  0  0
 16 18  1  0  0  0  0
 16 31  1  0  0  0  0
 17 18  1  0  0  0  0
 17 32  1  0  0  0  0
 17 33  1  0  0  0  0
 18 34  1  0  0  0  0
 18 35  1  0  0  0  0
M  END
$$$$
