MD_2_clus3
  MOE2019           3D

 27 27  0  0  0  0  0  0  0  0999 V2000
  -20.4984   17.0697   27.3685 C   0  0  0  0  0  0  0  0  0  0  0  0
  -21.8039   16.4521   27.7911 C   0  0  0  0  0  0  0  0  0  0  0  0
  -22.5218   17.0864   28.5053 O   0  0  0  0  0  0  0  0  0  0  0  0
  -21.9766   15.1728   27.4964 N   0  0  0  0  0  0  0  0  0  0  0  0
  -23.2028   14.4605   27.9412 C   0  0  0  0  0  0  0  0  0  0  0  0
  -22.8223   13.9934   29.3427 C   0  0  0  0  0  0  0  0  0  0  0  0
  -21.8689   12.9711   29.3391 C   0  0  0  0  0  0  0  0  0  0  0  0
  -21.5291   12.5052   30.5946 C   0  0  0  0  0  0  0  0  0  0  0  0
  -22.0834   12.9806   31.7834 C   0  0  0  0  0  0  0  0  0  0  0  0
  -22.9826   14.0173   31.7523 C   0  0  0  0  0  0  0  0  0  0  0  0
  -23.4003   14.4562   30.5164 C   0  0  0  0  0  0  0  0  0  0  0  0
  -21.4541   12.2245   33.2980 S   0  0  0  0  0  0  0  0  0  0  0  0
  -20.2661   11.3613   33.1046 O   0  0  0  0  0  0  0  0  0  0  0  0
  -21.6384   13.1977   34.3887 O   0  0  0  0  0  0  0  0  0  0  0  0
  -22.5857   11.1595   33.6905 N   0  0  0  0  0  0  0  0  0  0  0  0
  -19.6639   16.5280   27.8188 H   0  0  0  0  0  0  0  0  0  0  0  0
  -20.3424   17.1089   26.2878 H   0  0  0  0  0  0  0  0  0  0  0  0
  -20.3877   18.0922   27.7364 H   0  0  0  0  0  0  0  0  0  0  0  0
  -21.2674   14.6955   26.9615 H   0  0  0  0  0  0  0  0  0  0  0  0
  -24.0978   15.0882   27.9329 H   0  0  0  0  0  0  0  0  0  0  0  0
  -23.3250   13.5761   27.3093 H   0  0  0  0  0  0  0  0  0  0  0  0
  -21.4432   12.6004   28.4105 H   0  0  0  0  0  0  0  0  0  0  0  0
  -20.7805   11.7350   30.7610 H   0  0  0  0  0  0  0  0  0  0  0  0
  -23.3433   14.5761   32.6119 H   0  0  0  0  0  0  0  0  0  0  0  0
  -24.1350   15.2560   30.4933 H   0  0  0  0  0  0  0  0  0  0  0  0
  -22.3829   10.4483   32.9908 H   0  0  0  0  0  0  0  0  0  0  0  0
  -21.9512   10.8536   34.4248 H   0  0  0  0  0  0  0  0  0  0  0  0
  1  2  1  0  0  0  0
  1 16  1  0  0  0  0
  1 17  1  0  0  0  0
  1 18  1  0  0  0  0
  2  3  2  0  0  0  0
  2  4  1  0  0  0  0
  4  5  1  0  0  0  0
  4 19  1  0  0  0  0
  5  6  1  0  0  0  0
  5 20  1  0  0  0  0
  5 21  1  0  0  0  0
  6  7  1  0  0  0  0
  6 11  2  0  0  0  0
  7  8  2  0  0  0  0
  7 22  1  0  0  0  0
  8  9  1  0  0  0  0
  8 23  1  0  0  0  0
  9 10  2  0  0  0  0
  9 12  1  0  0  0  0
 10 11  1  0  0  0  0
 10 24  1  0  0  0  0
 11 25  1  0  0  0  0
 12 13  2  0  0  0  0
 12 14  2  0  0  0  0
 12 15  1  0  0  0  0
 15 26  1  0  0  0  0
 15 27  1  0  0  0  0
M  END
$$$$
