MD_3_clus0
  MOE2019           3D

 39 40  0  0  0  0  0  0  0  0999 V2000
  -24.9476   17.2722   32.6320 C   0  0  0  0  0  0  0  0  0  0  0  0
  -23.8201   17.3367   31.6211 N   0  3  0  0  0  0  0  0  0  0  0  0
  -24.3157   17.5973   30.2238 C   0  0  0  0  0  0  0  0  0  0  0  0
  -25.0919   16.4421   29.4504 C   0  0  0  0  0  0  0  0  0  0  0  0
  -24.8049   15.0885   29.9493 N   0  0  0  0  0  0  0  0  0  0  0  0
  -23.9038   14.8482   31.1567 C   0  0  0  0  0  0  0  0  0  0  0  0
  -23.0818   16.0384   31.6104 C   0  0  0  0  0  0  0  0  0  0  0  0
  -25.2770   14.0708   29.1445 C   0  0  0  0  0  0  0  0  0  0  0  0
  -25.6841   14.2687   28.0309 O   0  0  0  0  0  0  0  0  0  0  0  0
  -25.1268   12.6749   29.7471 C   0  0  0  0  0  0  0  0  0  0  0  0
  -26.0718   11.8588   29.0840 O   0  0  0  0  0  0  0  0  0  0  0  0
  -26.6058   10.7898   29.7404 C   0  0  0  0  0  0  0  0  0  0  0  0
  -27.9918   10.7153   29.9436 C   0  0  0  0  0  0  0  0  0  0  0  0
  -28.4364    9.5374   30.5134 C   0  0  0  0  0  0  0  0  0  0  0  0
  -27.6149    8.3939   30.7472 C   0  0  0  0  0  0  0  0  0  0  0  0
  -28.2030    7.0813   31.1847 C   0  0  0  0  0  0  0  0  0  0  0  0
  -26.2467    8.5704   30.5616 C   0  0  0  0  0  0  0  0  0  0  0  0
  -25.7630    9.7577   30.1301 C   0  0  0  0  0  0  0  0  0  0  0  0
  -25.4886   18.2130   32.5233 H   0  0  0  0  0  0  0  0  0  0  0  0
  -25.6608   16.4871   32.3756 H   0  0  0  0  0  0  0  0  0  0  0  0
  -24.5973   17.1693   33.6608 H   0  0  0  0  0  0  0  0  0  0  0  0
  -24.8652   18.5399   30.2236 H   0  0  0  0  0  0  0  0  0  0  0  0
  -23.4497   17.9249   29.6481 H   0  0  0  0  0  0  0  0  0  0  0  0
  -26.1248   16.6641   29.7333 H   0  0  0  0  0  0  0  0  0  0  0  0
  -24.8637   16.5351   28.3853 H   0  0  0  0  0  0  0  0  0  0  0  0
  -24.5945   14.5277   31.9409 H   0  0  0  0  0  0  0  0  0  0  0  0
  -23.1832   14.0467   30.9770 H   0  0  0  0  0  0  0  0  0  0  0  0
  -22.2043   16.2285   30.9906 H   0  0  0  0  0  0  0  0  0  0  0  0
  -22.7244   15.8717   32.6278 H   0  0  0  0  0  0  0  0  0  0  0  0
  -24.1111   12.3326   29.5337 H   0  0  0  0  0  0  0  0  0  0  0  0
  -25.3923   12.7487   30.8044 H   0  0  0  0  0  0  0  0  0  0  0  0
  -28.7392   11.3731   29.5093 H   0  0  0  0  0  0  0  0  0  0  0  0
  -29.4879    9.4937   30.7871 H   0  0  0  0  0  0  0  0  0  0  0  0
  -29.0468    6.8046   30.5491 H   0  0  0  0  0  0  0  0  0  0  0  0
  -27.4171    6.3382   31.0378 H   0  0  0  0  0  0  0  0  0  0  0  0
  -28.6102    7.1551   32.1953 H   0  0  0  0  0  0  0  0  0  0  0  0
  -25.5700    7.7467   30.7735 H   0  0  0  0  0  0  0  0  0  0  0  0
  -24.6931    9.9313   30.0546 H   0  0  0  0  0  0  0  0  0  0  0  0
  -23.1507   18.0423   31.9678 H   0  0  0  0  0  0  0  0  0  0  0  0
  1  2  1  0  0  0  0
  1 19  1  0  0  0  0
  1 20  1  0  0  0  0
  1 21  1  0  0  0  0
  2  3  1  0  0  0  0
  2  7  1  0  0  0  0
  2 39  1  0  0  0  0
  3  4  1  0  0  0  0
  3 22  1  0  0  0  0
  3 23  1  0  0  0  0
  4  5  1  0  0  0  0
  4 24  1  0  0  0  0
  4 25  1  0  0  0  0
  5  6  1  0  0  0  0
  5  8  1  0  0  0  0
  6  7  1  0  0  0  0
  6 26  1  0  0  0  0
  6 27  1  0  0  0  0
  7 28  1  0  0  0  0
  7 29  1  0  0  0  0
  8  9  2  0  0  0  0
  8 10  1  0  0  0  0
 10 11  1  0  0  0  0
 10 30  1  0  0  0  0
 10 31  1  0  0  0  0
 11 12  1  0  0  0  0
 12 13  1  0  0  0  0
 12 18  2  0  0  0  0
 13 14  2  0  0  0  0
 13 32  1  0  0  0  0
 14 15  1  0  0  0  0
 14 33  1  0  0  0  0
 15 16  1  0  0  0  0
 15 17  2  0  0  0  0
 16 34  1  0  0  0  0
 16 35  1  0  0  0  0
 16 36  1  0  0  0  0
 17 18  1  0  0  0  0
 17 37  1  0  0  0  0
 18 38  1  0  0  0  0
M  CHG  1   2   1
M  END
$$$$
