MD_1_clus2
  MOE2019           3D

 21 21  0  0  0  0  0  0  0  0999 V2000
  -22.5885   16.2888   24.3126 C   0  0  0  0  0  0  0  0  0  0  0  0
  -22.5279   15.9783   25.7731 O   0  0  0  0  0  0  0  0  0  0  0  0
  -21.5447   15.4415   26.4839 C   0  0  0  0  0  0  0  0  0  0  0  0
  -20.2068   15.5247   26.0079 C   0  0  0  0  0  0  0  0  0  0  0  0
  -19.2174   14.8348   26.7068 C   0  0  0  0  0  0  0  0  0  0  0  0
  -17.3499   14.7946   26.0367 Br  0  0  0  0  0  0  0  0  0  0  0  0
  -19.5589   14.1805   27.8720 C   0  0  0  0  0  0  0  0  0  0  0  0
  -20.9215   14.1061   28.3136 C   0  0  0  0  0  0  0  0  0  0  0  0
  -21.8779   14.8631   27.6666 C   0  0  0  0  0  0  0  0  0  0  0  0
  -23.3053   14.7302   28.1525 C   0  0  0  0  0  0  0  0  0  0  0  0
  -23.5376   15.4526   29.3994 C   0  0  0  0  0  0  0  0  0  0  0  0
  -23.8901   14.8481   30.4140 O   0  0  0  0  0  0  0  0  0  0  0  0
  -23.5733   16.6844   29.3456 O   0  5  0  0  0  0  0  0  0  0  0  0
  -22.5587   15.3376   23.7747 H   0  0  0  0  0  0  0  0  0  0  0  0
  -23.5372   16.7965   24.1192 H   0  0  0  0  0  0  0  0  0  0  0  0
  -21.7072   16.8423   23.9787 H   0  0  0  0  0  0  0  0  0  0  0  0
  -19.9803   15.9793   25.0477 H   0  0  0  0  0  0  0  0  0  0  0  0
  -18.7429   13.6902   28.3960 H   0  0  0  0  0  0  0  0  0  0  0  0
  -21.2003   13.5208   29.1867 H   0  0  0  0  0  0  0  0  0  0  0  0
  -24.0245   15.0052   27.3780 H   0  0  0  0  0  0  0  0  0  0  0  0
  -23.4456   13.6520   28.2576 H   0  0  0  0  0  0  0  0  0  0  0  0
  1  2  1  0  0  0  0
  1 14  1  0  0  0  0
  1 15  1  0  0  0  0
  1 16  1  0  0  0  0
  2  3  1  0  0  0  0
  3  4  1  0  0  0  0
  3  9  2  0  0  0  0
  4  5  2  0  0  0  0
  4 17  1  0  0  0  0
  5  6  1  0  0  0  0
  5  7  1  0  0  0  0
  7  8  2  0  0  0  0
  7 18  1  0  0  0  0
  8  9  1  0  0  0  0
  8 19  1  0  0  0  0
  9 10  1  0  0  0  0
 10 11  1  0  0  0  0
 10 20  1  0  0  0  0
 10 21  1  0  0  0  0
 11 12  2  0  0  0  0
 11 13  1  0  0  0  0
M  CHG  1  13  -1
M  END
$$$$
