MD_3_clus0
  MOE2019           3D

 19 19  0  0  0  0  0  0  0  0999 V2000
  -19.3582   11.3618   24.2933 O   0  0  0  0  0  0  0  0  0  0  0  0
  -20.2332   11.8295   25.0319 C   0  0  0  0  0  0  0  0  0  0  0  0
  -19.9999   12.8711   25.8250 N   0  0  0  0  0  0  0  0  0  0  0  0
  -18.6250   13.3374   25.9033 C   0  0  0  0  0  0  0  0  0  0  0  0
  -18.5509   14.8128   25.4509 C   0  0  0  0  0  0  0  0  0  0  0  0
  -17.1961   15.3243   25.4363 O   0  0  0  0  0  0  0  0  0  0  0  0
  -20.9197   13.3276   26.7090 C   0  0  0  0  0  0  0  0  0  0  0  0
  -22.1252   12.7799   26.8398 C   0  0  0  0  0  0  0  0  0  0  0  0
  -22.5631   11.7031   26.0129 C   0  0  0  0  0  0  0  0  0  0  0  0
  -24.4511   11.0930   26.0521 Br  0  0  0  0  0  0  0  0  0  0  0  0
  -21.5934   11.2614   25.0384 C   0  0  0  0  0  0  0  0  0  0  0  0
  -18.2758   13.3629   26.9381 H   0  0  0  0  0  0  0  0  0  0  0  0
  -17.9967   12.7000   25.2757 H   0  0  0  0  0  0  0  0  0  0  0  0
  -19.0629   14.9281   24.4920 H   0  0  0  0  0  0  0  0  0  0  0  0
  -19.2103   15.3095   26.1679 H   0  0  0  0  0  0  0  0  0  0  0  0
  -17.1592   15.8642   24.6264 H   0  0  0  0  0  0  0  0  0  0  0  0
  -20.5269   14.1008   27.3573 H   0  0  0  0  0  0  0  0  0  0  0  0
  -22.8178   13.1998   27.5619 H   0  0  0  0  0  0  0  0  0  0  0  0
  -21.6521   10.4647   24.3039 H   0  0  0  0  0  0  0  0  0  0  0  0
  1  2  2  0  0  0  0
  2  3  1  0  0  0  0
  2 11  1  0  0  0  0
  3  4  1  0  0  0  0
  3  7  1  0  0  0  0
  4  5  1  0  0  0  0
  4 12  1  0  0  0  0
  4 13  1  0  0  0  0
  5  6  1  0  0  0  0
  5 14  1  0  0  0  0
  5 15  1  0  0  0  0
  6 16  1  0  0  0  0
  7  8  2  0  0  0  0
  7 17  1  0  0  0  0
  8  9  1  0  0  0  0
  8 18  1  0  0  0  0
  9 10  1  0  0  0  0
  9 11  2  0  0  0  0
 11 19  1  0  0  0  0
M  END
$$$$
