MD_2_clus5
  MOE2019           3D

 31 32  0  0  0  0  0  0  0  0999 V2000
  -18.0702   10.4148   25.3067 C   0  0  0  0  0  0  0  0  0  0  0  0
  -19.2014   11.5147   25.3249 C   0  0  0  0  0  0  0  0  0  0  0  0
  -18.7854   12.9138   25.5139 N   0  0  0  0  0  0  0  0  0  0  0  0
  -19.1656   13.7574   26.5823 C   0  0  0  0  0  0  0  0  0  0  0  0
  -18.3664   14.8321   26.4787 C   0  0  0  0  0  0  0  0  0  0  0  0
  -18.2137   16.1045   27.3145 C   0  0  0  0  0  0  0  0  0  0  0  0
  -19.3239   16.9518   27.0156 N   0  0  0  0  0  0  0  0  0  0  0  0
  -19.2351   18.2531   26.7535 C   0  0  0  0  0  0  0  0  0  0  0  0
  -18.2269   18.8915   26.8645 O   0  0  0  0  0  0  0  0  0  0  0  0
  -20.5269   18.9274   26.2455 C   0  0  0  0  0  0  0  0  0  0  0  0
  -20.4706   20.1339   25.5720 C   0  0  0  0  0  0  0  0  0  0  0  0
  -21.6408   20.5795   25.0184 C   0  0  0  0  0  0  0  0  0  0  0  0
  -22.7740   19.7817   25.1790 C   0  0  0  0  0  0  0  0  0  0  0  0
  -22.8944   18.7229   25.9721 N   0  0  0  0  0  0  0  0  0  0  0  0
  -21.7084   18.3314   26.5192 C   0  0  0  0  0  0  0  0  0  0  0  0
  -17.5376   14.6596   25.3930 C   0  0  0  0  0  0  0  0  0  0  0  0
  -17.7354   13.4644   24.8365 N   0  0  0  0  0  0  0  0  0  0  0  0
  -17.6108   10.2831   24.3237 H   0  0  0  0  0  0  0  0  0  0  0  0
  -17.3056   10.4035   26.0851 H   0  0  0  0  0  0  0  0  0  0  0  0
  -18.5222    9.4267   25.4160 H   0  0  0  0  0  0  0  0  0  0  0  0
  -19.8290   11.4411   24.4325 H   0  0  0  0  0  0  0  0  0  0  0  0
  -19.9068   11.2968   26.1312 H   0  0  0  0  0  0  0  0  0  0  0  0
  -19.7967   13.4632   27.4112 H   0  0  0  0  0  0  0  0  0  0  0  0
  -18.3371   15.8959   28.3800 H   0  0  0  0  0  0  0  0  0  0  0  0
  -17.2991   16.6646   27.1000 H   0  0  0  0  0  0  0  0  0  0  0  0
  -20.1452   16.4106   26.7895 H   0  0  0  0  0  0  0  0  0  0  0  0
  -19.5790   20.7400   25.4309 H   0  0  0  0  0  0  0  0  0  0  0  0
  -21.7040   21.5586   24.5517 H   0  0  0  0  0  0  0  0  0  0  0  0
  -23.6640   19.9442   24.5754 H   0  0  0  0  0  0  0  0  0  0  0  0
  -21.8158   17.5446   27.2634 H   0  0  0  0  0  0  0  0  0  0  0  0
  -16.7170   15.2695   25.0346 H   0  0  0  0  0  0  0  0  0  0  0  0
  1  2  1  0  0  0  0
  1 18  1  0  0  0  0
  1 19  1  0  0  0  0
  1 20  1  0  0  0  0
  2  3  1  0  0  0  0
  2 21  1  0  0  0  0
  2 22  1  0  0  0  0
  3  4  1  0  0  0  0
  3 17  1  0  0  0  0
  4  5  2  0  0  0  0
  4 23  1  0  0  0  0
  5  6  1  0  0  0  0
  5 16  1  0  0  0  0
  6  7  1  0  0  0  0
  6 24  1  0  0  0  0
  6 25  1  0  0  0  0
  7  8  1  0  0  0  0
  7 26  1  0  0  0  0
  8  9  2  0  0  0  0
  8 10  1  0  0  0  0
 10 11  1  0  0  0  0
 10 15  2  0  0  0  0
 11 12  2  0  0  0  0
 11 27  1  0  0  0  0
 12 13  1  0  0  0  0
 12 28  1  0  0  0  0
 13 14  2  0  0  0  0
 13 29  1  0  0  0  0
 14 15  1  0  0  0  0
 15 30  1  0  0  0  0
 16 17  2  0  0  0  0
 16 31  1  0  0  0  0
M  END
$$$$
