MD_2_clus1
  MOE2019           3D

 16 17  0  0  0  0  0  0  0  0999 V2000
  -19.9139   14.4217   26.7572 C   0  0  0  0  0  0  0  0  0  0  0  0
  -18.1840   13.8191   25.9940 Br  0  0  0  0  0  0  0  0  0  0  0  0
  -20.2621   14.1280   28.0630 C   0  0  0  0  0  0  0  0  0  0  0  0
  -21.4671   14.5979   28.6419 C   0  0  0  0  0  0  0  0  0  0  0  0
  -22.2297   15.4154   27.9321 N   0  0  0  0  0  0  0  0  0  0  0  0
  -21.9672   15.6992   26.6450 C   0  0  0  0  0  0  0  0  0  0  0  0
  -22.8151   16.4134   25.9318 N   0  0  0  0  0  0  0  0  0  0  0  0
  -22.5802   16.6884   24.6366 C   0  0  0  0  0  0  0  0  0  0  0  0
  -21.5301   16.1098   23.9608 C   0  0  0  0  0  0  0  0  0  0  0  0
  -20.5980   15.3130   24.6233 C   0  0  0  0  0  0  0  0  0  0  0  0
  -20.8198   15.1545   25.9985 C   0  0  0  0  0  0  0  0  0  0  0  0
  -19.6613   13.4353   28.6461 H   0  0  0  0  0  0  0  0  0  0  0  0
  -21.7882   14.3700   29.6561 H   0  0  0  0  0  0  0  0  0  0  0  0
  -23.4079   17.1849   24.1343 H   0  0  0  0  0  0  0  0  0  0  0  0
  -21.3779   16.2007   22.8877 H   0  0  0  0  0  0  0  0  0  0  0  0
  -19.7911   14.7833   24.1232 H   0  0  0  0  0  0  0  0  0  0  0  0
  1  2  1  0  0  0  0
  1  3  1  0  0  0  0
  1 11  2  0  0  0  0
  3  4  2  0  0  0  0
  3 12  1  0  0  0  0
  4  5  1  0  0  0  0
  4 13  1  0  0  0  0
  5  6  2  0  0  0  0
  6  7  1  0  0  0  0
  6 11  1  0  0  0  0
  7  8  2  0  0  0  0
  8  9  1  0  0  0  0
  8 14  1  0  0  0  0
  9 10  2  0  0  0  0
  9 15  1  0  0  0  0
 10 11  1  0  0  0  0
 10 16  1  0  0  0  0
M  END
$$$$
