MD_1_clus4
  MOE2019           3D

 30 31  0  0  0  0  0  0  0  0999 V2000
  -18.7535   13.2078   24.4570 C   0  0  0  0  0  0  0  0  0  0  0  0
  -19.0745   14.4440   25.2315 C   0  0  0  0  0  0  0  0  0  0  0  0
  -19.3852   14.1016   26.6020 N   0  0  0  0  0  0  0  0  0  0  0  0
  -18.2267   13.8781   27.4770 C   0  0  0  0  0  0  0  0  0  0  0  0
  -18.3402   12.3998   27.8787 C   0  0  0  0  0  0  0  0  0  0  0  0
  -20.5658   14.4687   27.1417 C   0  0  0  0  0  0  0  0  0  0  0  0
  -21.4829   13.5727   27.6801 C   0  0  0  0  0  0  0  0  0  0  0  0
  -22.6600   13.9705   28.2272 C   0  0  0  0  0  0  0  0  0  0  0  0
  -23.4590   12.8975   28.8562 C   0  0  0  0  0  0  0  0  0  0  0  0
  -23.0542   15.2187   28.3006 N   0  0  0  0  0  0  0  0  0  0  0  0
  -22.0953   16.0636   27.7287 C   0  0  0  0  0  0  0  0  0  0  0  0
  -22.2003   17.3514   27.8475 N   0  0  0  0  0  0  0  0  0  0  0  0
  -21.0515   17.8100   27.1868 C   0  0  0  0  0  0  0  0  0  0  0  0
  -20.1823   16.8752   26.7941 N   0  0  0  0  0  0  0  0  0  0  0  0
  -20.9804   15.7788   27.0942 N   0  0  0  0  0  0  0  0  0  0  0  0
  -18.3661   13.4685   23.4702 H   0  0  0  0  0  0  0  0  0  0  0  0
  -17.9878   12.5991   24.9428 H   0  0  0  0  0  0  0  0  0  0  0  0
  -19.5941   12.5258   24.3201 H   0  0  0  0  0  0  0  0  0  0  0  0
  -18.2293   15.1359   25.2049 H   0  0  0  0  0  0  0  0  0  0  0  0
  -19.9842   14.8632   24.7936 H   0  0  0  0  0  0  0  0  0  0  0  0
  -17.3476   14.0992   26.8668 H   0  0  0  0  0  0  0  0  0  0  0  0
  -18.3027   14.6442   28.2535 H   0  0  0  0  0  0  0  0  0  0  0  0
  -19.1893   12.2845   28.5566 H   0  0  0  0  0  0  0  0  0  0  0  0
  -18.5037   11.7264   27.0343 H   0  0  0  0  0  0  0  0  0  0  0  0
  -17.4525   12.0969   28.4367 H   0  0  0  0  0  0  0  0  0  0  0  0
  -21.1557   12.5404   27.7463 H   0  0  0  0  0  0  0  0  0  0  0  0
  -23.1820   11.8669   28.6250 H   0  0  0  0  0  0  0  0  0  0  0  0
  -23.2879   12.9839   29.9316 H   0  0  0  0  0  0  0  0  0  0  0  0
  -24.5290   13.1083   28.7984 H   0  0  0  0  0  0  0  0  0  0  0  0
  -20.8132   18.8625   27.1653 H   0  0  0  0  0  0  0  0  0  0  0  0
  1  2  1  0  0  0  0
  1 16  1  0  0  0  0
  1 17  1  0  0  0  0
  1 18  1  0  0  0  0
  2  3  1  0  0  0  0
  2 19  1  0  0  0  0
  2 20  1  0  0  0  0
  3  4  1  0  0  0  0
  3  6  1  0  0  0  0
  4  5  1  0  0  0  0
  4 21  1  0  0  0  0
  4 22  1  0  0  0  0
  5 23  1  0  0  0  0
  5 24  1  0  0  0  0
  5 25  1  0  0  0  0
  6  7  2  0  0  0  0
  6 15  1  0  0  0  0
  7  8  1  0  0  0  0
  7 26  1  0  0  0  0
  8  9  1  0  0  0  0
  8 10  2  0  0  0  0
  9 27  1  0  0  0  0
  9 28  1  0  0  0  0
  9 29  1  0  0  0  0
 10 11  1  0  0  0  0
 11 12  2  0  0  0  0
 11 15  1  0  0  0  0
 12 13  1  0  0  0  0
 13 14  2  0  0  0  0
 13 30  1  0  0  0  0
 14 15  1  0  0  0  0
M  END
$$$$
