MD_1_clus1
  MOE2019           3D

 23 24  0  0  1  0  0  0  0  0999 V2000
  -22.5483   11.5081   30.0714 C   0  0  0  0  0  0  0  0  0  0  0  0
  -21.9564   12.5094   29.2554 N   0  0  0  0  0  0  0  0  0  0  0  0
  -21.9496   12.2720   27.8665 N   0  0  0  0  0  0  0  0  0  0  0  0
  -21.4557   13.3459   27.2711 N   0  0  0  0  0  0  0  0  0  0  0  0
  -21.2185   14.2900   28.2585 C   0  0  0  0  0  0  0  0  0  0  0  0
  -20.6822   15.6864   28.0805 C   0  0  0  0  0  0  0  0  0  0  0  0
  -21.0766   16.5366   29.2035 C   0  0  0  0  0  0  0  0  0  0  0  0
  -20.8742   15.8478   30.6216 C   0  0  3  0  0  0  0  0  0  0  0  0
  -21.5883   14.4818   30.6657 C   0  0  0  0  0  0  0  0  0  0  0  0
  -21.4121   13.7054   29.4905 C   0  0  0  0  0  0  0  0  0  0  0  0
  -21.4073   16.7989   31.6520 C   0  0  0  0  0  0  0  0  0  0  0  0
  -20.7217   16.9913   32.6910 O   0  0  0  0  0  0  0  0  0  0  0  0
  -22.5688   17.2366   31.5539 O   0  5  0  0  0  0  0  0  0  0  0  0
  -22.2641   10.5071   29.7362 H   0  0  0  0  0  0  0  0  0  0  0  0
  -22.0733   11.5695   31.0527 H   0  0  0  0  0  0  0  0  0  0  0  0
  -23.6285   11.6306   30.1877 H   0  0  0  0  0  0  0  0  0  0  0  0
  -19.5958   15.7976   28.0731 H   0  0  0  0  0  0  0  0  0  0  0  0
  -21.0270   15.9811   27.0866 H   0  0  0  0  0  0  0  0  0  0  0  0
  -20.4328   17.4178   29.2438 H   0  0  0  0  0  0  0  0  0  0  0  0
  -22.1105   16.8708   29.0869 H   0  0  0  0  0  0  0  0  0  0  0  0
  -19.8010   15.6704   30.7188 H   0  0  0  0  0  0  0  0  0  0  0  0
  -21.3324   14.0082   31.6165 H   0  0  0  0  0  0  0  0  0  0  0  0
  -22.6769   14.5429   30.6087 H   0  0  0  0  0  0  0  0  0  0  0  0
  1  2  1  0  0  0  0
  1 14  1  0  0  0  0
  1 15  1  0  0  0  0
  1 16  1  0  0  0  0
  2  3  1  0  0  0  0
  2 10  1  0  0  0  0
  3  4  2  0  0  0  0
  4  5  1  0  0  0  0
  5  6  1  0  0  0  0
  5 10  2  0  0  0  0
  6  7  1  0  0  0  0
  6 17  1  0  0  0  0
  6 18  1  0  0  0  0
  7  8  1  0  0  0  0
  7 19  1  0  0  0  0
  7 20  1  0  0  0  0
  8  9  1  0  0  0  0
  8 11  1  0  0  0  0
  8 21  1  0  0  0  0
  9 10  1  0  0  0  0
  9 22  1  0  0  0  0
  9 23  1  0  0  0  0
 11 12  2  0  0  0  0
 11 13  1  0  0  0  0
M  CHG  1  13  -1
M  END
$$$$
