MD_3_clus1
  MOE2019           3D

 19 19  0  0  0  0  0  0  0  0999 V2000
  -15.5475   13.8595   22.1563 C   0  0  0  0  0  0  0  0  0  0  0  0
  -14.3602   14.6802   20.7943 Br  0  0  0  0  0  0  0  0  0  0  0  0
  -16.1236   14.5513   23.1731 C   0  0  0  0  0  0  0  0  0  0  0  0
  -16.8672   13.5461   23.7627 N   0  0  0  0  0  0  0  0  0  0  0  0
  -17.8863   13.8645   24.7284 C   0  0  0  0  0  0  0  0  0  0  0  0
  -19.2473   13.7172   24.1064 C   0  0  0  0  0  0  0  0  0  0  0  0
  -20.1951   13.2384   25.0236 O   0  0  0  0  0  0  0  0  0  0  0  0
  -20.5326   14.0770   26.0814 C   0  0  0  0  0  0  0  0  0  0  0  0
  -16.8003   12.2900   23.1806 N   0  0  0  0  0  0  0  0  0  0  0  0
  -15.8890   12.4928   22.1785 C   0  0  0  0  0  0  0  0  0  0  0  0
  -16.1378   15.5894   23.4803 H   0  0  0  0  0  0  0  0  0  0  0  0
  -17.8567   13.1385   25.5452 H   0  0  0  0  0  0  0  0  0  0  0  0
  -17.8093   14.8844   25.1145 H   0  0  0  0  0  0  0  0  0  0  0  0
  -19.6013   14.6978   23.7787 H   0  0  0  0  0  0  0  0  0  0  0  0
  -19.2389   13.0285   23.2587 H   0  0  0  0  0  0  0  0  0  0  0  0
  -20.7052   15.0382   25.5910 H   0  0  0  0  0  0  0  0  0  0  0  0
  -21.3874   13.5638   26.5282 H   0  0  0  0  0  0  0  0  0  0  0  0
  -19.6268   14.0347   26.6909 H   0  0  0  0  0  0  0  0  0  0  0  0
  -15.5732   11.7146   21.4950 H   0  0  0  0  0  0  0  0  0  0  0  0
  1  2  1  0  0  0  0
  1  3  2  0  0  0  0
  1 10  1  0  0  0  0
  3  4  1  0  0  0  0
  3 11  1  0  0  0  0
  4  5  1  0  0  0  0
  4  9  1  0  0  0  0
  5  6  1  0  0  0  0
  5 12  1  0  0  0  0
  5 13  1  0  0  0  0
  6  7  1  0  0  0  0
  6 14  1  0  0  0  0
  6 15  1  0  0  0  0
  7  8  1  0  0  0  0
  8 16  1  0  0  0  0
  8 17  1  0  0  0  0
  8 18  1  0  0  0  0
  9 10  2  0  0  0  0
 10 19  1  0  0  0  0
M  END
$$$$
