MD_3_clus2
  MOE2019           3D

 39 40  0  0  0  0  0  0  0  0999 V2000
  -22.9180   15.9839   33.3699 C   0  0  0  0  0  0  0  0  0  0  0  0
  -21.9851   15.4329   32.3574 N   0  3  0  0  0  0  0  0  0  0  0  0
  -22.1656   15.7052   30.8983 C   0  0  0  0  0  0  0  0  0  0  0  0
  -23.2752   14.8171   30.2418 C   0  0  0  0  0  0  0  0  0  0  0  0
  -23.1117   13.3490   30.4873 N   0  0  0  0  0  0  0  0  0  0  0  0
  -22.6195   12.9756   31.8835 C   0  0  0  0  0  0  0  0  0  0  0  0
  -21.6600   13.9945   32.5302 C   0  0  0  0  0  0  0  0  0  0  0  0
  -23.8435   12.4234   29.7696 C   0  0  0  0  0  0  0  0  0  0  0  0
  -24.5955   12.7954   28.9257 O   0  0  0  0  0  0  0  0  0  0  0  0
  -23.6790   10.9101   30.0197 C   0  0  0  0  0  0  0  0  0  0  0  0
  -24.6264   10.2567   30.8375 O   0  0  0  0  0  0  0  0  0  0  0  0
  -24.3503    8.9755   31.1807 C   0  0  0  0  0  0  0  0  0  0  0  0
  -23.5222    8.1630   30.4574 C   0  0  0  0  0  0  0  0  0  0  0  0
  -23.4494    6.7821   30.6776 C   0  0  0  0  0  0  0  0  0  0  0  0
  -24.1557    6.3186   31.7976 C   0  0  0  0  0  0  0  0  0  0  0  0
  -24.1326    4.8390   32.1177 C   0  0  0  0  0  0  0  0  0  0  0  0
  -24.9538    7.1984   32.6081 C   0  0  0  0  0  0  0  0  0  0  0  0
  -25.0629    8.5526   32.1956 C   0  0  0  0  0  0  0  0  0  0  0  0
  -22.4266   15.9255   34.3419 H   0  0  0  0  0  0  0  0  0  0  0  0
  -23.0728   17.0304   33.1050 H   0  0  0  0  0  0  0  0  0  0  0  0
  -23.8373   15.4026   33.4598 H   0  0  0  0  0  0  0  0  0  0  0  0
  -22.4648   16.7435   30.7435 H   0  0  0  0  0  0  0  0  0  0  0  0
  -21.2715   15.4773   30.3162 H   0  0  0  0  0  0  0  0  0  0  0  0
  -24.2646   15.1031   30.6089 H   0  0  0  0  0  0  0  0  0  0  0  0
  -23.3606   15.0411   29.1757 H   0  0  0  0  0  0  0  0  0  0  0  0
  -23.4858   12.7821   32.5205 H   0  0  0  0  0  0  0  0  0  0  0  0
  -22.1154   12.0131   31.7656 H   0  0  0  0  0  0  0  0  0  0  0  0
  -20.7428   13.7595   31.9880 H   0  0  0  0  0  0  0  0  0  0  0  0
  -21.7259   13.7409   33.5890 H   0  0  0  0  0  0  0  0  0  0  0  0
  -23.6004   10.4427   29.0355 H   0  0  0  0  0  0  0  0  0  0  0  0
  -22.6681   10.7062   30.3840 H   0  0  0  0  0  0  0  0  0  0  0  0
  -22.9563    8.5327   29.6070 H   0  0  0  0  0  0  0  0  0  0  0  0
  -22.8578    6.0637   30.1162 H   0  0  0  0  0  0  0  0  0  0  0  0
  -24.5449    4.7585   33.1256 H   0  0  0  0  0  0  0  0  0  0  0  0
  -24.8019    4.3490   31.4065 H   0  0  0  0  0  0  0  0  0  0  0  0
  -23.1593    4.3441   32.1522 H   0  0  0  0  0  0  0  0  0  0  0  0
  -25.5266    6.8721   33.4722 H   0  0  0  0  0  0  0  0  0  0  0  0
  -25.6191    9.2040   32.8651 H   0  0  0  0  0  0  0  0  0  0  0  0
  -21.0595   15.8083   32.6192 H   0  0  0  0  0  0  0  0  0  0  0  0
  1  2  1  0  0  0  0
  1 19  1  0  0  0  0
  1 20  1  0  0  0  0
  1 21  1  0  0  0  0
  2  3  1  0  0  0  0
  2  7  1  0  0  0  0
  2 39  1  0  0  0  0
  3  4  1  0  0  0  0
  3 22  1  0  0  0  0
  3 23  1  0  0  0  0
  4  5  1  0  0  0  0
  4 24  1  0  0  0  0
  4 25  1  0  0  0  0
  5  6  1  0  0  0  0
  5  8  1  0  0  0  0
  6  7  1  0  0  0  0
  6 26  1  0  0  0  0
  6 27  1  0  0  0  0
  7 28  1  0  0  0  0
  7 29  1  0  0  0  0
  8  9  2  0  0  0  0
  8 10  1  0  0  0  0
 10 11  1  0  0  0  0
 10 30  1  0  0  0  0
 10 31  1  0  0  0  0
 11 12  1  0  0  0  0
 12 13  1  0  0  0  0
 12 18  2  0  0  0  0
 13 14  2  0  0  0  0
 13 32  1  0  0  0  0
 14 15  1  0  0  0  0
 14 33  1  0  0  0  0
 15 16  1  0  0  0  0
 15 17  2  0  0  0  0
 16 34  1  0  0  0  0
 16 35  1  0  0  0  0
 16 36  1  0  0  0  0
 17 18  1  0  0  0  0
 17 37  1  0  0  0  0
 18 38  1  0  0  0  0
M  CHG  1   2   1
M  END
$$$$
