MD_1_clus0
  MOE2019           3D

 23 23  0  0  0  0  0  0  0  0999 V2000
  -19.4696   14.4614   24.9817 C   0  0  0  0  0  0  0  0  0  0  0  0
  -19.0718   13.0836   24.8509 N   0  0  0  0  0  0  0  0  0  0  0  0
  -19.7112   12.0907   25.7219 C   0  0  0  0  0  0  0  0  0  0  0  0
  -21.1192   11.7586   25.2404 C   0  0  0  0  0  0  0  0  0  0  0  0
  -21.1776   11.7190   23.8362 O   0  0  0  0  0  0  0  0  0  0  0  0
  -18.0177   12.7456   24.0588 C   0  0  0  0  0  0  0  0  0  0  0  0
  -16.9032   13.5379   23.9294 C   0  0  0  0  0  0  0  0  0  0  0  0
  -15.8651   13.1708   23.0886 C   0  0  0  0  0  0  0  0  0  0  0  0
  -16.0164   11.9375   22.4685 C   0  0  0  0  0  0  0  0  0  0  0  0
  -17.1253   11.1380   22.7098 C   0  0  0  0  0  0  0  0  0  0  0  0
  -18.1449   11.5358   23.5084 N   0  0  0  0  0  0  0  0  0  0  0  0
  -20.0067   14.6219   24.0429 H   0  0  0  0  0  0  0  0  0  0  0  0
  -20.1957   14.6295   25.7815 H   0  0  0  0  0  0  0  0  0  0  0  0
  -18.6905   15.2077   25.1565 H   0  0  0  0  0  0  0  0  0  0  0  0
  -19.2116   11.1187   25.7233 H   0  0  0  0  0  0  0  0  0  0  0  0
  -19.8200   12.4444   26.7504 H   0  0  0  0  0  0  0  0  0  0  0  0
  -21.4122   10.7809   25.6305 H   0  0  0  0  0  0  0  0  0  0  0  0
  -21.7611   12.5393   25.6580 H   0  0  0  0  0  0  0  0  0  0  0  0
  -20.2533   11.9555   23.6406 H   0  0  0  0  0  0  0  0  0  0  0  0
  -16.7833   14.4574   24.4978 H   0  0  0  0  0  0  0  0  0  0  0  0
  -15.0096   13.8390   23.0448 H   0  0  0  0  0  0  0  0  0  0  0  0
  -15.2375   11.4676   21.8733 H   0  0  0  0  0  0  0  0  0  0  0  0
  -17.2780   10.1174   22.3661 H   0  0  0  0  0  0  0  0  0  0  0  0
  1  2  1  0  0  0  0
  1 12  1  0  0  0  0
  1 13  1  0  0  0  0
  1 14  1  0  0  0  0
  2  3  1  0  0  0  0
  2  6  1  0  0  0  0
  3  4  1  0  0  0  0
  3 15  1  0  0  0  0
  3 16  1  0  0  0  0
  4  5  1  0  0  0  0
  4 17  1  0  0  0  0
  4 18  1  0  0  0  0
  5 19  1  0  0  0  0
  6  7  1  0  0  0  0
  6 11  2  0  0  0  0
  7  8  2  0  0  0  0
  7 20  1  0  0  0  0
  8  9  1  0  0  0  0
  8 21  1  0  0  0  0
  9 10  2  0  0  0  0
  9 22  1  0  0  0  0
 10 11  1  0  0  0  0
 10 23  1  0  0  0  0
M  END
$$$$
