MD_2_clus1
  MOE2019           3D

 28 29  0  0  0  0  0  0  0  0999 V2000
  -20.9380   12.2659   32.6594 C   0  0  0  0  0  0  0  0  0  0  0  0
  -21.4313   11.0293   32.1316 C   0  0  0  0  0  0  0  0  0  0  0  0
  -21.0778    9.9438   32.8302 N   0  0  0  0  0  0  0  0  0  0  0  0
  -21.9133    9.0106   32.3226 C   0  0  0  0  0  0  0  0  0  0  0  0
  -22.0432    7.6745   32.6495 C   0  0  0  0  0  0  0  0  0  0  0  0
  -22.9770    6.8827   32.0131 C   0  0  0  0  0  0  0  0  0  0  0  0
  -23.7826    7.4050   31.0175 C   0  0  0  0  0  0  0  0  0  0  0  0
  -23.6023    8.7334   30.6383 C   0  0  0  0  0  0  0  0  0  0  0  0
  -22.6582    9.4946   31.3256 C   0  0  0  0  0  0  0  0  0  0  0  0
  -22.4243   10.7845   31.1683 N   0  0  0  0  0  0  0  0  0  0  0  0
  -23.0342   11.7361   30.2593 C   0  0  0  0  0  0  0  0  0  0  0  0
  -22.0750   11.9909   29.0550 C   0  0  0  0  0  0  0  0  0  0  0  0
  -22.7028   12.7369   27.9407 C   0  0  0  0  0  0  0  0  0  0  0  0
  -23.8433   13.0632   27.9250 O   0  0  0  0  0  0  0  0  0  0  0  0
  -22.0107   12.8322   26.8553 N   0  0  0  0  0  0  0  0  0  0  0  0
  -19.9641   12.5026   32.2262 H   0  0  0  0  0  0  0  0  0  0  0  0
  -21.5251   13.1736   32.5051 H   0  0  0  0  0  0  0  0  0  0  0  0
  -20.7586   12.2212   33.7358 H   0  0  0  0  0  0  0  0  0  0  0  0
  -21.2784    7.2923   33.3208 H   0  0  0  0  0  0  0  0  0  0  0  0
  -23.0363    5.8261   32.2605 H   0  0  0  0  0  0  0  0  0  0  0  0
  -24.5231    6.7750   30.5316 H   0  0  0  0  0  0  0  0  0  0  0  0
  -24.2742    9.1808   29.9112 H   0  0  0  0  0  0  0  0  0  0  0  0
  -23.9528   11.3340   29.8244 H   0  0  0  0  0  0  0  0  0  0  0  0
  -23.2867   12.6729   30.7621 H   0  0  0  0  0  0  0  0  0  0  0  0
  -21.1731   12.4978   29.4040 H   0  0  0  0  0  0  0  0  0  0  0  0
  -21.8065   11.0333   28.6045 H   0  0  0  0  0  0  0  0  0  0  0  0
  -22.6436   13.0650   26.1047 H   0  0  0  0  0  0  0  0  0  0  0  0
  -21.1524   12.3235   26.7055 H   0  0  0  0  0  0  0  0  0  0  0  0
  1  2  1  0  0  0  0
  1 16  1  0  0  0  0
  1 17  1  0  0  0  0
  1 18  1  0  0  0  0
  2  3  2  0  0  0  0
  2 10  1  0  0  0  0
  3  4  1  0  0  0  0
  4  5  1  0  0  0  0
  4  9  2  0  0  0  0
  5  6  2  0  0  0  0
  5 19  1  0  0  0  0
  6  7  1  0  0  0  0
  6 20  1  0  0  0  0
  7  8  2  0  0  0  0
  7 21  1  0  0  0  0
  8  9  1  0  0  0  0
  8 22  1  0  0  0  0
  9 10  1  0  0  0  0
 10 11  1  0  0  0  0
 11 12  1  0  0  0  0
 11 23  1  0  0  0  0
 11 24  1  0  0  0  0
 12 13  1  0  0  0  0
 12 25  1  0  0  0  0
 12 26  1  0  0  0  0
 13 14  2  0  0  0  0
 13 15  1  0  0  0  0
 15 27  1  0  0  0  0
 15 28  1  0  0  0  0
M  END
$$$$
