MD_3_clus1
  MOE2019           3D

 18 18  0  0  0  0  0  0  0  0999 V2000
  -21.2157   11.8951   29.6252 C   0  0  0  0  0  0  0  0  0  0  0  0
  -20.7314   12.1281   28.1965 C   0  0  0  0  0  0  0  0  0  0  0  0
  -20.4761   13.5406   28.0019 O   0  0  0  0  0  0  0  0  0  0  0  0
  -19.7321   13.8679   26.8951 C   0  0  0  0  0  0  0  0  0  0  0  0
  -19.3386   13.0540   26.0661 O   0  0  0  0  0  0  0  0  0  0  0  0
  -19.4936   15.2689   26.7965 C   0  0  0  0  0  0  0  0  0  0  0  0
  -19.8724   16.2940   27.7324 C   0  0  0  0  0  0  0  0  0  0  0  0
  -19.4691   17.4578   27.2464 N   0  0  0  0  0  0  0  0  0  0  0  0
  -18.7429   17.1561   26.1154 N   0  0  0  0  0  0  0  0  0  0  0  0
  -18.7420   15.8392   25.8637 C   0  0  0  0  0  0  0  0  0  0  0  0
  -21.6631   10.9074   29.7513 H   0  0  0  0  0  0  0  0  0  0  0  0
  -20.4242   12.0981   30.3510 H   0  0  0  0  0  0  0  0  0  0  0  0
  -21.9563   12.6533   29.8883 H   0  0  0  0  0  0  0  0  0  0  0  0
  -19.7974   11.5640   28.1213 H   0  0  0  0  0  0  0  0  0  0  0  0
  -21.5115   11.7854   27.5131 H   0  0  0  0  0  0  0  0  0  0  0  0
  -20.4473   16.1770   28.6440 H   0  0  0  0  0  0  0  0  0  0  0  0
  -18.3362   17.9027   25.5675 H   0  0  0  0  0  0  0  0  0  0  0  0
  -18.1978   15.4154   25.0292 H   0  0  0  0  0  0  0  0  0  0  0  0
  1  2  1  0  0  0  0
  1 11  1  0  0  0  0
  1 12  1  0  0  0  0
  1 13  1  0  0  0  0
  2  3  1  0  0  0  0
  2 14  1  0  0  0  0
  2 15  1  0  0  0  0
  3  4  1  0  0  0  0
  4  5  2  0  0  0  0
  4  6  1  0  0  0  0
  6  7  1  0  0  0  0
  6 10  2  0  0  0  0
  7  8  2  0  0  0  0
  7 16  1  0  0  0  0
  8  9  1  0  0  0  0
  9 10  1  0  0  0  0
  9 17  1  0  0  0  0
 10 18  1  0  0  0  0
M  END
$$$$
