MD_1_clus0
  MOE2019           3D

 30 31  0  0  0  0  0  0  0  0999 V2000
  -16.7030   17.6196   28.4034 N   0  0  0  0  0  0  0  0  0  0  0  0
  -16.9444   17.0165   27.1757 C   0  0  0  0  0  0  0  0  0  0  0  0
  -16.2462   17.3171   26.2678 O   0  0  0  0  0  0  0  0  0  0  0  0
  -17.7989   15.9961   27.0325 N   0  0  0  0  0  0  0  0  0  0  0  0
  -18.1315   15.4750   25.7067 C   0  0  0  0  0  0  0  0  0  0  0  0
  -18.6249   13.9882   25.6102 C   0  0  0  0  0  0  0  0  0  0  0  0
  -19.4893   13.6164   26.7712 N   0  0  0  0  0  0  0  0  0  0  0  0
  -18.7708   13.8371   27.9783 C   0  0  0  0  0  0  0  0  0  0  0  0
  -18.5166   15.3379   28.2257 C   0  0  0  0  0  0  0  0  0  0  0  0
  -20.7143   13.0378   26.6567 C   0  0  0  0  0  0  0  0  0  0  0  0
  -21.6730   13.5357   27.5571 C   0  0  0  0  0  0  0  0  0  0  0  0
  -23.0061   13.0263   27.4602 C   0  0  0  0  0  0  0  0  0  0  0  0
  -23.3219   12.1713   26.3975 C   0  0  0  0  0  0  0  0  0  0  0  0
  -24.6055   11.9918   26.1177 F   0  0  0  0  0  0  0  0  0  0  0  0
  -22.3676   11.7574   25.4629 C   0  0  0  0  0  0  0  0  0  0  0  0
  -21.0414   12.2209   25.6170 C   0  0  0  0  0  0  0  0  0  0  0  0
  -16.0590   18.3763   28.5838 H   0  0  0  0  0  0  0  0  0  0  0  0
  -17.4040   17.4405   29.1064 H   0  0  0  0  0  0  0  0  0  0  0  0
  -18.9836   15.9802   25.2445 H   0  0  0  0  0  0  0  0  0  0  0  0
  -17.3554   15.5259   24.9375 H   0  0  0  0  0  0  0  0  0  0  0  0
  -19.1216   13.7773   24.6594 H   0  0  0  0  0  0  0  0  0  0  0  0
  -17.7088   13.4137   25.4538 H   0  0  0  0  0  0  0  0  0  0  0  0
  -19.4343   13.4805   28.7703 H   0  0  0  0  0  0  0  0  0  0  0  0
  -17.8292   13.2818   28.0053 H   0  0  0  0  0  0  0  0  0  0  0  0
  -17.9240   15.4007   29.1425 H   0  0  0  0  0  0  0  0  0  0  0  0
  -19.4716   15.8355   28.4096 H   0  0  0  0  0  0  0  0  0  0  0  0
  -21.3252   14.2492   28.2992 H   0  0  0  0  0  0  0  0  0  0  0  0
  -23.7578   13.4758   28.1042 H   0  0  0  0  0  0  0  0  0  0  0  0
  -22.6884   11.1456   24.6240 H   0  0  0  0  0  0  0  0  0  0  0  0
  -20.2589   11.9265   24.9213 H   0  0  0  0  0  0  0  0  0  0  0  0
  1  2  1  0  0  0  0
  1 17  1  0  0  0  0
  1 18  1  0  0  0  0
  2  3  2  0  0  0  0
  2  4  1  0  0  0  0
  4  5  1  0  0  0  0
  4  9  1  0  0  0  0
  5  6  1  0  0  0  0
  5 19  1  0  0  0  0
  5 20  1  0  0  0  0
  6  7  1  0  0  0  0
  6 21  1  0  0  0  0
  6 22  1  0  0  0  0
  7  8  1  0  0  0  0
  7 10  1  0  0  0  0
  8  9  1  0  0  0  0
  8 23  1  0  0  0  0
  8 24  1  0  0  0  0
  9 25  1  0  0  0  0
  9 26  1  0  0  0  0
 10 11  1  0  0  0  0
 10 16  2  0  0  0  0
 11 12  2  0  0  0  0
 11 27  1  0  0  0  0
 12 13  1  0  0  0  0
 12 28  1  0  0  0  0
 13 14  1  0  0  0  0
 13 15  2  0  0  0  0
 15 16  1  0  0  0  0
 15 29  1  0  0  0  0
 16 30  1  0  0  0  0
M  END
$$$$
