MD_2_clus0
  MOE2019           3D

 14 14  0  0  0  0  0  0  0  0999 V2000
  -23.1270   11.4805   24.4548 C   0  0  0  0  0  0  0  0  0  0  0  0
  -22.5964   12.0620   25.7313 C   0  0  0  0  0  0  0  0  0  0  0  0
  -21.2949   12.7454   25.7216 C   0  0  0  0  0  0  0  0  0  0  0  0
  -21.0213   13.2333   26.9242 C   0  0  0  0  0  0  0  0  0  0  0  0
  -22.3232   13.1489   28.0843 S   0  0  0  0  0  0  0  0  0  0  0  0
  -23.2728   12.2628   26.9305 C   0  0  0  0  0  0  0  0  0  0  0  0
  -24.6551   11.7974   27.3051 C   0  0  0  0  0  0  0  0  0  0  0  0
  -25.5208   11.4422   26.4822 O   0  0  0  0  0  0  0  0  0  0  0  0
  -24.9158   11.8873   28.4709 O   0  5  0  0  0  0  0  0  0  0  0  0
  -22.6780   12.0080   23.6111 H   0  0  0  0  0  0  0  0  0  0  0  0
  -22.7828   10.4515   24.3373 H   0  0  0  0  0  0  0  0  0  0  0  0
  -24.1940   11.6333   24.2797 H   0  0  0  0  0  0  0  0  0  0  0  0
  -20.6370   12.8127   24.8610 H   0  0  0  0  0  0  0  0  0  0  0  0
  -20.0974   13.6750   27.2764 H   0  0  0  0  0  0  0  0  0  0  0  0
  1  2  1  0  0  0  0
  1 10  1  0  0  0  0
  1 11  1  0  0  0  0
  1 12  1  0  0  0  0
  2  3  1  0  0  0  0
  2  6  2  0  0  0  0
  3  4  2  0  0  0  0
  3 13  1  0  0  0  0
  4  5  1  0  0  0  0
  4 14  1  0  0  0  0
  5  6  1  0  0  0  0
  6  7  1  0  0  0  0
  7  8  2  0  0  0  0
  7  9  1  0  0  0  0
M  CHG  1   9  -1
M  END
$$$$
