MD_1_clus3
  MOE2019           3D

 23 24  0  0  1  0  0  0  0  0999 V2000
  -19.1648   13.0647   28.2737 C   0  0  0  0  0  0  0  0  0  0  0  0
  -19.7300   13.8115   27.2274 N   0  0  0  0  0  0  0  0  0  0  0  0
  -18.9836   14.1056   26.0988 N   0  0  0  0  0  0  0  0  0  0  0  0
  -19.8274   14.8022   25.2571 N   0  0  0  0  0  0  0  0  0  0  0  0
  -21.0110   14.9256   25.8836 C   0  0  0  0  0  0  0  0  0  0  0  0
  -22.1325   15.8859   25.4915 C   0  0  0  0  0  0  0  0  0  0  0  0
  -23.4117   15.6986   26.4144 C   0  0  0  0  0  0  0  0  0  0  0  0
  -22.9508   15.5496   27.8713 C   0  0  3  0  0  0  0  0  0  0  0  0
  -22.1268   14.2819   28.0968 C   0  0  0  0  0  0  0  0  0  0  0  0
  -21.0298   14.2623   27.0367 C   0  0  0  0  0  0  0  0  0  0  0  0
  -24.1238   15.6930   28.8906 C   0  0  0  0  0  0  0  0  0  0  0  0
  -24.7900   14.7588   29.2317 O   0  0  0  0  0  0  0  0  0  0  0  0
  -24.5649   16.8023   29.0188 O   0  5  0  0  0  0  0  0  0  0  0  0
  -19.4193   12.0215   28.0679 H   0  0  0  0  0  0  0  0  0  0  0  0
  -18.0875   13.2460   28.2423 H   0  0  0  0  0  0  0  0  0  0  0  0
  -19.5662   13.4449   29.2163 H   0  0  0  0  0  0  0  0  0  0  0  0
  -21.8038   16.9257   25.5487 H   0  0  0  0  0  0  0  0  0  0  0  0
  -22.4017   15.6841   24.4526 H   0  0  0  0  0  0  0  0  0  0  0  0
  -24.0120   16.5919   26.2298 H   0  0  0  0  0  0  0  0  0  0  0  0
  -23.8949   14.7827   26.0665 H   0  0  0  0  0  0  0  0  0  0  0  0
  -22.4001   16.4464   28.1629 H   0  0  0  0  0  0  0  0  0  0  0  0
  -21.5834   14.5082   29.0167 H   0  0  0  0  0  0  0  0  0  0  0  0
  -22.7631   13.3981   28.1671 H   0  0  0  0  0  0  0  0  0  0  0  0
  1  2  1  0  0  0  0
  1 14  1  0  0  0  0
  1 15  1  0  0  0  0
  1 16  1  0  0  0  0
  2  3  1  0  0  0  0
  2 10  1  0  0  0  0
  3  4  2  0  0  0  0
  4  5  1  0  0  0  0
  5  6  1  0  0  0  0
  5 10  2  0  0  0  0
  6  7  1  0  0  0  0
  6 17  1  0  0  0  0
  6 18  1  0  0  0  0
  7  8  1  0  0  0  0
  7 19  1  0  0  0  0
  7 20  1  0  0  0  0
  8  9  1  0  0  0  0
  8 11  1  0  0  0  0
  8 21  1  0  0  0  0
  9 10  1  0  0  0  0
  9 22  1  0  0  0  0
  9 23  1  0  0  0  0
 11 12  2  0  0  0  0
 11 13  1  0  0  0  0
M  CHG  1  13  -1
M  END
$$$$
