MD_1_clus0
  MOE2019           3D

 32 33  0  0  0  0  0  0  0  0999 V2000
  -23.3952    6.1006   34.5741 C   0  0  0  0  0  0  0  0  0  0  0  0
  -22.9926    7.4876   34.4119 O   0  0  0  0  0  0  0  0  0  0  0  0
  -23.3992    8.2121   33.3337 C   0  0  0  0  0  0  0  0  0  0  0  0
  -24.3483    7.8922   32.5972 O   0  0  0  0  0  0  0  0  0  0  0  0
  -22.6793    9.3527   33.2869 N   0  0  0  0  0  0  0  0  0  0  0  0
  -22.9477   10.3707   32.3989 C   0  0  0  0  0  0  0  0  0  0  0  0
  -22.4169   10.3161   31.1191 C   0  0  0  0  0  0  0  0  0  0  0  0
  -22.5935   11.3518   30.2247 C   0  0  0  0  0  0  0  0  0  0  0  0
  -23.3000   12.5532   30.6097 C   0  0  0  0  0  0  0  0  0  0  0  0
  -23.3082   13.8259   29.7614 C   0  0  0  0  0  0  0  0  0  0  0  0
  -24.4120   13.7584   28.6735 C   0  0  0  0  0  0  0  0  0  0  0  0
  -24.3524   12.8043   27.6673 C   0  0  0  0  0  0  0  0  0  0  0  0
  -25.3353   12.8062   26.7558 C   0  0  0  0  0  0  0  0  0  0  0  0
  -26.3676   13.6828   26.6366 N   0  0  0  0  0  0  0  0  0  0  0  0
  -26.4842   14.5276   27.6618 C   0  0  0  0  0  0  0  0  0  0  0  0
  -25.4699   14.6349   28.5938 C   0  0  0  0  0  0  0  0  0  0  0  0
  -23.8156   12.6236   31.9218 C   0  0  0  0  0  0  0  0  0  0  0  0
  -23.6010   11.5223   32.7803 C   0  0  0  0  0  0  0  0  0  0  0  0
  -24.4598    6.0502   34.8174 H   0  0  0  0  0  0  0  0  0  0  0  0
  -23.0739    5.5490   33.6872 H   0  0  0  0  0  0  0  0  0  0  0  0
  -22.9110    5.7929   35.5043 H   0  0  0  0  0  0  0  0  0  0  0  0
  -21.9558    9.4896   33.9779 H   0  0  0  0  0  0  0  0  0  0  0  0
  -21.8394    9.4454   30.8194 H   0  0  0  0  0  0  0  0  0  0  0  0
  -22.1595   11.3961   29.2291 H   0  0  0  0  0  0  0  0  0  0  0  0
  -23.3684   14.7522   30.3365 H   0  0  0  0  0  0  0  0  0  0  0  0
  -22.3769   14.0207   29.2253 H   0  0  0  0  0  0  0  0  0  0  0  0
  -23.5326   12.0910   27.6282 H   0  0  0  0  0  0  0  0  0  0  0  0
  -25.1926   12.0926   25.9473 H   0  0  0  0  0  0  0  0  0  0  0  0
  -27.3396   15.1962   27.5840 H   0  0  0  0  0  0  0  0  0  0  0  0
  -25.5457   15.4747   29.2792 H   0  0  0  0  0  0  0  0  0  0  0  0
  -24.3912   13.4850   32.2515 H   0  0  0  0  0  0  0  0  0  0  0  0
  -24.0240   11.4366   33.7776 H   0  0  0  0  0  0  0  0  0  0  0  0
  1  2  1  0  0  0  0
  1 19  1  0  0  0  0
  1 20  1  0  0  0  0
  1 21  1  0  0  0  0
  2  3  1  0  0  0  0
  3  4  2  0  0  0  0
  3  5  1  0  0  0  0
  5  6  1  0  0  0  0
  5 22  1  0  0  0  0
  6  7  1  0  0  0  0
  6 18  2  0  0  0  0
  7  8  2  0  0  0  0
  7 23  1  0  0  0  0
  8  9  1  0  0  0  0
  8 24  1  0  0  0  0
  9 10  1  0  0  0  0
  9 17  2  0  0  0  0
 10 11  1  0  0  0  0
 10 25  1  0  0  0  0
 10 26  1  0  0  0  0
 11 12  1  0  0  0  0
 11 16  2  0  0  0  0
 12 13  2  0  0  0  0
 12 27  1  0  0  0  0
 13 14  1  0  0  0  0
 13 28  1  0  0  0  0
 14 15  2  0  0  0  0
 15 16  1  0  0  0  0
 15 29  1  0  0  0  0
 16 30  1  0  0  0  0
 17 18  1  0  0  0  0
 17 31  1  0  0  0  0
 18 32  1  0  0  0  0
M  END
$$$$
