MD_1_clus1
  MOE2019           3D

 27 27  0  0  0  0  0  0  0  0999 V2000
  -18.1316   17.9442   26.9610 C   0  0  0  0  0  0  0  0  0  0  0  0
  -18.8700   17.1954   28.0221 C   0  0  0  0  0  0  0  0  0  0  0  0
  -19.7108   17.6566   28.7466 O   0  0  0  0  0  0  0  0  0  0  0  0
  -18.5306   15.8871   28.1257 N   0  0  0  0  0  0  0  0  0  0  0  0
  -19.2091   14.8056   29.0072 C   0  0  0  0  0  0  0  0  0  0  0  0
  -20.0990   13.9454   28.1629 C   0  0  0  0  0  0  0  0  0  0  0  0
  -19.7089   13.3787   26.9471 C   0  0  0  0  0  0  0  0  0  0  0  0
  -20.5693   12.7578   26.0765 C   0  0  0  0  0  0  0  0  0  0  0  0
  -21.9146   12.6317   26.4343 C   0  0  0  0  0  0  0  0  0  0  0  0
  -22.3062   13.2083   27.6190 C   0  0  0  0  0  0  0  0  0  0  0  0
  -21.4752   13.8947   28.4560 C   0  0  0  0  0  0  0  0  0  0  0  0
  -23.0734   11.8618   25.3485 S   0  0  0  0  0  0  0  0  0  0  0  0
  -24.4944   11.9427   25.7321 O   0  0  0  0  0  0  0  0  0  0  0  0
  -22.6104   11.7787   23.9782 O   0  0  0  0  0  0  0  0  0  0  0  0
  -22.9215   10.3486   25.7793 N   0  0  0  0  0  0  0  0  0  0  0  0
  -18.7143   18.8371   26.7282 H   0  0  0  0  0  0  0  0  0  0  0  0
  -17.1553   18.2026   27.3760 H   0  0  0  0  0  0  0  0  0  0  0  0
  -17.9433   17.3171   26.0862 H   0  0  0  0  0  0  0  0  0  0  0  0
  -17.7200   15.5514   27.6278 H   0  0  0  0  0  0  0  0  0  0  0  0
  -18.4230   14.1590   29.4054 H   0  0  0  0  0  0  0  0  0  0  0  0
  -19.7860   15.3349   29.7698 H   0  0  0  0  0  0  0  0  0  0  0  0
  -18.6733   13.4717   26.6285 H   0  0  0  0  0  0  0  0  0  0  0  0
  -20.2266   12.5061   25.0762 H   0  0  0  0  0  0  0  0  0  0  0  0
  -23.3610   13.2029   27.8803 H   0  0  0  0  0  0  0  0  0  0  0  0
  -21.8460   14.4779   29.2951 H   0  0  0  0  0  0  0  0  0  0  0  0
  -23.9338   10.2892   25.8717 H   0  0  0  0  0  0  0  0  0  0  0  0
  -22.7541   10.0955   24.8075 H   0  0  0  0  0  0  0  0  0  0  0  0
  1  2  1  0  0  0  0
  1 16  1  0  0  0  0
  1 17  1  0  0  0  0
  1 18  1  0  0  0  0
  2  3  2  0  0  0  0
  2  4  1  0  0  0  0
  4  5  1  0  0  0  0
  4 19  1  0  0  0  0
  5  6  1  0  0  0  0
  5 20  1  0  0  0  0
  5 21  1  0  0  0  0
  6  7  1  0  0  0  0
  6 11  2  0  0  0  0
  7  8  2  0  0  0  0
  7 22  1  0  0  0  0
  8  9  1  0  0  0  0
  8 23  1  0  0  0  0
  9 10  2  0  0  0  0
  9 12  1  0  0  0  0
 10 11  1  0  0  0  0
 10 24  1  0  0  0  0
 11 25  1  0  0  0  0
 12 13  2  0  0  0  0
 12 14  2  0  0  0  0
 12 15  1  0  0  0  0
 15 26  1  0  0  0  0
 15 27  1  0  0  0  0
M  END
$$$$
