MD_3_clus3
  MOE2019           3D

 19 19  0  0  0  0  0  0  0  0999 V2000
  -18.9133   13.9879   27.7977 C   0  0  0  0  0  0  0  0  0  0  0  0
  -18.5629   14.9147   26.6629 C   0  0  0  0  0  0  0  0  0  0  0  0
  -18.4260   16.1179   26.8066 O   0  0  0  0  0  0  0  0  0  0  0  0
  -18.3940   14.2856   25.4801 N   0  0  0  0  0  0  0  0  0  0  0  0
  -17.9208   14.9375   24.3031 C   0  0  0  0  0  0  0  0  0  0  0  0
  -16.9937   14.0223   23.6553 C   0  0  0  0  0  0  0  0  0  0  0  0
  -17.3210   12.6802   23.2467 C   0  0  0  0  0  0  0  0  0  0  0  0
  -16.2834   12.2765   22.5567 N   0  0  0  0  0  0  0  0  0  0  0  0
  -15.3646   13.2519   22.4962 N   0  0  0  0  0  0  0  0  0  0  0  0
  -15.7751   14.3953   23.1679 C   0  0  0  0  0  0  0  0  0  0  0  0
  -19.7293   13.3781   27.4043 H   0  0  0  0  0  0  0  0  0  0  0  0
  -18.1173   13.3569   28.1985 H   0  0  0  0  0  0  0  0  0  0  0  0
  -19.2666   14.5218   28.6825 H   0  0  0  0  0  0  0  0  0  0  0  0
  -18.2635   13.2865   25.5372 H   0  0  0  0  0  0  0  0  0  0  0  0
  -18.7542   15.3136   23.7037 H   0  0  0  0  0  0  0  0  0  0  0  0
  -17.3193   15.8041   24.5900 H   0  0  0  0  0  0  0  0  0  0  0  0
  -18.2015   12.0792   23.4379 H   0  0  0  0  0  0  0  0  0  0  0  0
  -14.4406   13.0373   22.1461 H   0  0  0  0  0  0  0  0  0  0  0  0
  -15.1631   15.2817   23.2769 H   0  0  0  0  0  0  0  0  0  0  0  0
  1  2  1  0  0  0  0
  1 11  1  0  0  0  0
  1 12  1  0  0  0  0
  1 13  1  0  0  0  0
  2  3  2  0  0  0  0
  2  4  1  0  0  0  0
  4  5  1  0  0  0  0
  4 14  1  0  0  0  0
  5  6  1  0  0  0  0
  5 15  1  0  0  0  0
  5 16  1  0  0  0  0
  6  7  1  0  0  0  0
  6 10  2  0  0  0  0
  7  8  2  0  0  0  0
  7 17  1  0  0  0  0
  8  9  1  0  0  0  0
  9 10  1  0  0  0  0
  9 18  1  0  0  0  0
 10 19  1  0  0  0  0
M  END
$$$$
