MD_2_clus2
  MOE2019           3D

 29 30  0  0  1  0  0  0  0  0999 V2000
  -13.7193   13.9092   23.2968 C   0  0  0  0  0  0  0  0  0  0  0  0
  -14.3731   12.6483   22.6574 C   0  0  3  0  0  0  0  0  0  0  0  0
  -14.6131   12.8514   21.2502 O   0  0  0  0  0  0  0  0  0  0  0  0
  -15.7203   12.4548   23.3706 C   0  0  0  0  0  0  0  0  0  0  0  0
  -16.5184   11.3587   22.9916 C   0  0  0  0  0  0  0  0  0  0  0  0
  -17.5944   11.3382   23.7599 N   0  0  0  0  0  0  0  0  0  0  0  0
  -17.4947   12.3804   24.5655 N   0  0  0  0  0  0  0  0  0  0  0  0
  -16.3409   13.0951   24.4074 C   0  0  0  0  0  0  0  0  0  0  0  0
  -18.5538   12.6147   25.5895 C   0  0  0  0  0  0  0  0  0  0  0  0
  -19.6352   13.5383   25.0221 C   0  0  0  0  0  0  0  0  0  0  0  0
  -20.1977   14.2224   26.2532 C   0  0  0  0  0  0  0  0  0  0  0  0
  -19.0787   14.2650   27.3058 C   0  0  0  0  0  0  0  0  0  0  0  0
  -18.2103   13.0296   26.9984 C   0  0  0  0  0  0  0  0  0  0  0  0
  -12.7292   14.0722   22.8652 H   0  0  0  0  0  0  0  0  0  0  0  0
  -14.3864   14.7722   23.2562 H   0  0  0  0  0  0  0  0  0  0  0  0
  -13.3679   13.7583   24.3189 H   0  0  0  0  0  0  0  0  0  0  0  0
  -13.6858   11.8157   22.8295 H   0  0  0  0  0  0  0  0  0  0  0  0
  -13.9026   12.2651   20.9336 H   0  0  0  0  0  0  0  0  0  0  0  0
  -16.4672   10.7526   22.0962 H   0  0  0  0  0  0  0  0  0  0  0  0
  -16.2258   14.0662   24.8726 H   0  0  0  0  0  0  0  0  0  0  0  0
  -19.0342   11.6760   25.8751 H   0  0  0  0  0  0  0  0  0  0  0  0
  -19.2009   14.3047   24.3769 H   0  0  0  0  0  0  0  0  0  0  0  0
  -20.5355   13.0639   24.6261 H   0  0  0  0  0  0  0  0  0  0  0  0
  -20.5293   15.2248   25.9735 H   0  0  0  0  0  0  0  0  0  0  0  0
  -21.0363   13.7961   26.8076 H   0  0  0  0  0  0  0  0  0  0  0  0
  -18.5391   15.1932   27.1050 H   0  0  0  0  0  0  0  0  0  0  0  0
  -19.6344   14.2252   28.2450 H   0  0  0  0  0  0  0  0  0  0  0  0
  -18.4434   12.2458   27.7211 H   0  0  0  0  0  0  0  0  0  0  0  0
  -17.1378   13.2304   27.0395 H   0  0  0  0  0  0  0  0  0  0  0  0
  1  2  1  0  0  0  0
  1 14  1  0  0  0  0
  1 15  1  0  0  0  0
  1 16  1  0  0  0  0
  2  3  1  0  0  0  0
  2  4  1  0  0  0  0
  2 17  1  0  0  0  0
  3 18  1  0  0  0  0
  4  5  1  0  0  0  0
  4  8  2  0  0  0  0
  5  6  2  0  0  0  0
  5 19  1  0  0  0  0
  6  7  1  0  0  0  0
  7  8  1  0  0  0  0
  7  9  1  0  0  0  0
  8 20  1  0  0  0  0
  9 10  1  0  0  0  0
  9 13  1  0  0  0  0
  9 21  1  0  0  0  0
 10 11  1  0  0  0  0
 10 22  1  0  0  0  0
 10 23  1  0  0  0  0
 11 12  1  0  0  0  0
 11 24  1  0  0  0  0
 11 25  1  0  0  0  0
 12 13  1  0  0  0  0
 12 26  1  0  0  0  0
 12 27  1  0  0  0  0
 13 28  1  0  0  0  0
 13 29  1  0  0  0  0
M  END
$$$$
