
  -OEChem-08032012103D

 28 28  0     0  0  0  0  0  0999 V2000
    4.4056    0.1456   -0.0986 C   0  0  0  0  0  0  0  0  0  0  0  0
    3.7224   -1.0489    0.1295 C   0  0  0  0  0  0  0  0  0  0  0  0
    4.0619    1.2931    0.6162 C   0  0  0  0  0  0  0  0  0  0  0  0
    2.6955   -1.0959    1.0724 C   0  0  0  0  0  0  0  0  0  0  0  0
    3.0350    1.2461    1.5590 C   0  0  0  0  0  0  0  0  0  0  0  0
    2.3518    0.0516    1.7871 C   0  0  0  0  0  0  0  0  0  0  0  0
   -3.1931   -0.0681    1.3049 C   0  0  0  0  0  0  0  0  0  0  0  0
   -4.3186    0.5733    0.5442 C   0  0  0  0  0  0  0  0  0  0  0  0
    1.2404    0.0015    2.8075 C   0  0  0  0  0  0  0  0  0  0  0  0
   -0.1266    0.3228    2.2155 C   0  0  0  0  0  0  0  0  0  0  0  0
   -2.7507    0.7065    2.4236 N   0  0  0  0  0  0  0  0  0  0  0  0
   -2.7073   -1.1455    0.9794 O   0  0  0  0  0  0  0  0  0  0  0  0
   -1.5586   -1.0317    3.9339 O   0  0  0  0  0  0  0  0  0  0  0  0
   -1.1822    1.4322    4.3268 O   0  0  0  0  0  0  0  0  0  0  0  0
   -1.4244    0.3201    3.4283 S   0  0  0  0  0  0  0  0  0  0  0  0
    5.2060    0.1817   -0.8318 H   0  0  0  0  0  0  0  0  0  0  0  0
    3.9905   -1.9428   -0.4261 H   0  0  0  0  0  0  0  0  0  0  0  0
    4.5944    2.2230    0.4396 H   0  0  0  0  0  0  0  0  0  0  0  0
    2.1685   -2.0310    1.2433 H   0  0  0  0  0  0  0  0  0  0  0  0
    2.7741    2.1451    2.1111 H   0  0  0  0  0  0  0  0  0  0  0  0
   -3.9137    1.2121   -0.2455 H   0  0  0  0  0  0  0  0  0  0  0  0
   -4.9444   -0.1990    0.0890 H   0  0  0  0  0  0  0  0  0  0  0  0
   -4.9200    1.1844    1.2223 H   0  0  0  0  0  0  0  0  0  0  0  0
    1.4618    0.7283    3.6000 H   0  0  0  0  0  0  0  0  0  0  0  0
    1.2158   -0.9815    3.2948 H   0  0  0  0  0  0  0  0  0  0  0  0
   -0.1189    1.3303    1.7873 H   0  0  0  0  0  0  0  0  0  0  0  0
   -0.4178   -0.3824    1.4311 H   0  0  0  0  0  0  0  0  0  0  0  0
   -3.2212    1.6025    2.6070 H   0  0  0  0  0  0  0  0  0  0  0  0
  1  2  1  0  0  0  0
  1  3  2  0  0  0  0
  2  4  2  0  0  0  0
  3  5  1  0  0  0  0
  4  6  1  0  0  0  0
  5  6  2  0  0  0  0
  6  9  1  0  0  0  0
  7  8  1  0  0  0  0
  7 11  1  0  0  0  0
  7 12  2  0  0  0  0
  9 10  1  0  0  0  0
 10 15  1  0  0  0  0
 11 15  1  0  0  0  0
 13 15  2  0  0  0  0
 14 15  2  0  0  0  0
  1 16  1  0  0  0  0
  2 17  1  0  0  0  0
  3 18  1  0  0  0  0
  4 19  1  0  0  0  0
  5 20  1  0  0  0  0
  8 21  1  0  0  0  0
  8 22  1  0  0  0  0
  8 23  1  0  0  0  0
  9 24  1  0  0  0  0
  9 25  1  0  0  0  0
 10 26  1  0  0  0  0
 10 27  1  0  0  0  0
 11 28  1  0  0  0  0
M  END
$$$$
