
  -OEChem-09302016153D

 34 35  0     0  0  0  0  0  0999 V2000
   -3.7605   -1.4079   -5.8492 C   0  0  0  0  0  0  0  0  0  0  0  0
   -2.3980   -1.6367   -5.6577 C   0  0  0  0  0  0  0  0  0  0  0  0
   -4.4420   -0.5188   -5.0180 C   0  0  0  0  0  0  0  0  0  0  0  0
   -1.7169   -0.9767   -4.6349 C   0  0  0  0  0  0  0  0  0  0  0  0
   -3.7610    0.1412   -3.9952 C   0  0  0  0  0  0  0  0  0  0  0  0
   -2.3984   -0.0877   -3.8036 C   0  0  0  0  0  0  0  0  0  0  0  0
   -3.4629    0.4892    1.1832 C   0  0  0  0  0  0  0  0  0  0  0  0
   -2.7853    1.5754    0.7767 C   0  0  0  0  0  0  0  0  0  0  0  0
    0.5687    0.8321   -0.5841 C   0  0  0  0  0  0  0  0  0  0  0  0
   -0.5778   -0.3241    0.9614 C   0  0  0  0  0  0  0  0  0  0  0  0
   -0.9280    0.5325   -0.2881 C   0  0  0  0  0  0  0  0  0  0  0  0
   -1.6629    0.6260   -2.6976 C   0  0  0  0  0  0  0  0  0  0  0  0
   -1.6945   -0.1764   -1.3958 C   0  0  0  0  0  0  0  0  0  0  0  0
   -1.6294    1.7625    0.1037 N   0  5  0  0  0  0  0  0  0  0  0  0
    1.1388   -1.7766   -0.4818 O   0  0  0  0  0  0  0  0  0  0  0  0
    2.0609   -0.2578    1.3382 O   0  0  0  0  0  0  0  0  0  0  0  0
   -3.3632    2.8008    1.0968 O   0  0  0  0  0  0  0  0  0  0  0  0
    1.0612   -0.5922    0.3465 S   0  0  0  0  0  0  0  0  0  0  0  0
   -4.2904   -1.9209   -6.6465 H   0  0  0  0  0  0  0  0  0  0  0  0
   -1.8669   -2.3281   -6.3055 H   0  0  0  0  0  0  0  0  0  0  0  0
   -5.5026   -0.3396   -5.1676 H   0  0  0  0  0  0  0  0  0  0  0  0
   -0.6554   -1.1613   -4.4929 H   0  0  0  0  0  0  0  0  0  0  0  0
   -4.3002    0.8320   -3.3524 H   0  0  0  0  0  0  0  0  0  0  0  0
   -4.3984    0.5862    1.7254 H   0  0  0  0  0  0  0  0  0  0  0  0
   -3.1088   -0.5176    0.9896 H   0  0  0  0  0  0  0  0  0  0  0  0
    0.8649    0.7802   -1.6362 H   0  0  0  0  0  0  0  0  0  0  0  0
    0.9746    1.7526   -0.1495 H   0  0  0  0  0  0  0  0  0  0  0  0
   -0.5626    0.2031    1.9220 H   0  0  0  0  0  0  0  0  0  0  0  0
   -1.1501   -1.2494    1.0774 H   0  0  0  0  0  0  0  0  0  0  0  0
   -0.6228    0.8051   -2.9996 H   0  0  0  0  0  0  0  0  0  0  0  0
   -2.1076    1.6165   -2.5353 H   0  0  0  0  0  0  0  0  0  0  0  0
   -2.7302   -0.3308   -1.0711 H   0  0  0  0  0  0  0  0  0  0  0  0
   -1.2588   -1.1700   -1.5523 H   0  0  0  0  0  0  0  0  0  0  0  0
   -4.1837    2.5891    1.5755 H   0  0  0  0  0  0  0  0  0  0  0  0
  1  2  1  0  0  0  0
  1  3  2  0  0  0  0
  2  4  2  0  0  0  0
  3  5  1  0  0  0  0
  4  6  1  0  0  0  0
  5  6  2  0  0  0  0
  6 12  1  0  0  0  0
  7  8  2  0  0  0  0
  8 14  1  0  0  0  0
  8 17  1  0  0  0  0
  9 11  1  0  0  0  0
  9 18  1  0  0  0  0
 10 11  1  0  0  0  0
 10 18  1  0  0  0  0
 11 13  1  0  0  0  0
 11 14  1  0  0  0  0
 12 13  1  0  0  0  0
 15 18  2  0  0  0  0
 16 18  2  0  0  0  0
  1 19  1  0  0  0  0
  2 20  1  0  0  0  0
  3 21  1  0  0  0  0
  4 22  1  0  0  0  0
  5 23  1  0  0  0  0
  7 24  1  0  0  0  0
  7 25  1  0  0  0  0
  9 26  1  0  0  0  0
  9 27  1  0  0  0  0
 10 28  1  0  0  0  0
 10 29  1  0  0  0  0
 12 30  1  0  0  0  0
 12 31  1  0  0  0  0
 13 32  1  0  0  0  0
 13 33  1  0  0  0  0
 17 34  1  0  0  0  0
M  CHG  1  14  -1
M  END
$$$$
