
  -OEChem-08032012103D

 40 42  0     0  0  0  0  0  0999 V2000
   -6.1274   -1.4791    2.3296 C   0  0  0  0  0  0  0  0  0  0  0  0
   -3.5760   -4.0797   -2.9075 C   0  0  0  0  0  0  0  0  0  0  0  0
   -5.8505   -0.2466    1.7382 C   0  0  0  0  0  0  0  0  0  0  0  0
   -5.0844   -2.3456    2.6571 C   0  0  0  0  0  0  0  0  0  0  0  0
   -3.7991   -2.7641   -2.5016 C   0  0  0  0  0  0  0  0  0  0  0  0
   -2.2838   -4.5048   -3.2161 C   0  0  0  0  0  0  0  0  0  0  0  0
   -4.5306    0.1194    1.4742 C   0  0  0  0  0  0  0  0  0  0  0  0
   -3.7646   -1.9796    2.3931 C   0  0  0  0  0  0  0  0  0  0  0  0
   -2.7301   -1.8733   -2.4045 C   0  0  0  0  0  0  0  0  0  0  0  0
   -1.2147   -3.6141   -3.1190 C   0  0  0  0  0  0  0  0  0  0  0  0
   -3.4877   -0.7471    1.8016 C   0  0  0  0  0  0  0  0  0  0  0  0
   -1.4379   -2.2983   -2.7132 C   0  0  0  0  0  0  0  0  0  0  0  0
    0.0196    1.0958   -0.5786 C   0  0  0  0  0  0  0  0  0  0  0  0
    0.6870   -0.0197    1.0276 C   0  0  0  0  0  0  0  0  0  0  0  0
   -0.1951   -0.3709   -0.1790 C   0  0  0  0  0  0  0  0  0  0  0  0
   -2.0607   -0.3521    1.5162 C   0  0  0  0  0  0  0  0  0  0  0  0
   -1.6164   -0.8012    0.1203 C   0  0  0  0  0  0  0  0  0  0  0  0
    0.4736   -1.2964   -1.0926 N   0  5  0  0  0  0  0  0  0  0  0  0
   -0.6887    0.1344   -2.9013 O   0  0  0  0  0  0  0  0  0  0  0  0
    0.8568   -1.6293   -3.6228 O   0  0  0  0  0  0  0  0  0  0  0  0
    0.6313    1.3924    0.7023 O   0  0  0  0  0  0  0  0  0  0  0  0
   -0.0576   -1.1464   -2.5908 S   0  0  0  0  0  0  0  0  0  0  0  0
   -7.1550   -1.7634    2.5364 H   0  0  0  0  0  0  0  0  0  0  0  0
   -4.4080   -4.7737   -2.9839 H   0  0  0  0  0  0  0  0  0  0  0  0
   -6.6623    0.4286    1.4842 H   0  0  0  0  0  0  0  0  0  0  0  0
   -5.2996   -3.3048    3.1186 H   0  0  0  0  0  0  0  0  0  0  0  0
   -4.8052   -2.4325   -2.2622 H   0  0  0  0  0  0  0  0  0  0  0  0
   -2.1105   -5.5290   -3.5328 H   0  0  0  0  0  0  0  0  0  0  0  0
   -4.3243    1.0817    1.0129 H   0  0  0  0  0  0  0  0  0  0  0  0
   -2.9585   -2.6611    2.6516 H   0  0  0  0  0  0  0  0  0  0  0  0
   -2.9152   -0.8503   -2.0881 H   0  0  0  0  0  0  0  0  0  0  0  0
   -0.2125   -3.9555   -3.3631 H   0  0  0  0  0  0  0  0  0  0  0  0
    0.7180    1.2970   -1.3984 H   0  0  0  0  0  0  0  0  0  0  0  0
   -0.8895    1.6860   -0.7314 H   0  0  0  0  0  0  0  0  0  0  0  0
    0.2496   -0.2194    2.0111 H   0  0  0  0  0  0  0  0  0  0  0  0
    1.7213   -0.3808    1.0161 H   0  0  0  0  0  0  0  0  0  0  0  0
   -1.9523    0.7366    1.6066 H   0  0  0  0  0  0  0  0  0  0  0  0
   -1.3966   -0.7880    2.2738 H   0  0  0  0  0  0  0  0  0  0  0  0
   -1.6913   -1.8943    0.0380 H   0  0  0  0  0  0  0  0  0  0  0  0
   -2.2914   -0.3836   -0.6393 H   0  0  0  0  0  0  0  0  0  0  0  0
  1  3  1  0  0  0  0
  1  4  2  0  0  0  0
  2  5  1  0  0  0  0
  2  6  2  0  0  0  0
  3  7  2  0  0  0  0
  4  8  1  0  0  0  0
  5  9  2  0  0  0  0
  6 10  1  0  0  0  0
  7 11  1  0  0  0  0
  8 11  2  0  0  0  0
  9 12  1  0  0  0  0
 10 12  2  0  0  0  0
 11 16  1  0  0  0  0
 12 22  1  0  0  0  0
 13 15  1  0  0  0  0
 13 21  1  0  0  0  0
 14 15  1  0  0  0  0
 14 21  1  0  0  0  0
 15 17  1  0  0  0  0
 15 18  1  0  0  0  0
 16 17  1  0  0  0  0
 18 22  1  0  0  0  0
 19 22  2  0  0  0  0
 20 22  2  0  0  0  0
  1 23  1  0  0  0  0
  2 24  1  0  0  0  0
  3 25  1  0  0  0  0
  4 26  1  0  0  0  0
  5 27  1  0  0  0  0
  6 28  1  0  0  0  0
  7 29  1  0  0  0  0
  8 30  1  0  0  0  0
  9 31  1  0  0  0  0
 10 32  1  0  0  0  0
 13 33  1  0  0  0  0
 13 34  1  0  0  0  0
 14 35  1  0  0  0  0
 14 36  1  0  0  0  0
 16 37  1  0  0  0  0
 16 38  1  0  0  0  0
 17 39  1  0  0  0  0
 17 40  1  0  0  0  0
M  CHG  1  18  -1
M  END
$$$$
