
  -OEChem-09302017373D

 39 40  0     0  0  0  0  0  0999 V2000
    0.6535    3.5223   -4.6815 C   0  0  0  0  0  0  0  0  0  0  0  0
    0.7761    4.1663   -3.4504 C   0  0  0  0  0  0  0  0  0  0  0  0
    0.2508    2.1878   -4.7336 C   0  0  0  0  0  0  0  0  0  0  0  0
    0.4961    3.4758   -2.2712 C   0  0  0  0  0  0  0  0  0  0  0  0
   -0.0293    1.4973   -3.5544 C   0  0  0  0  0  0  0  0  0  0  0  0
    0.0934    2.1413   -2.3232 C   0  0  0  0  0  0  0  0  0  0  0  0
    1.7806   -1.0868    1.1956 C   0  0  0  0  0  0  0  0  0  0  0  0
   -0.2047   -1.2334    0.6611 C   0  0  0  0  0  0  0  0  0  0  0  0
    0.7371   -0.0262    0.8062 C   0  0  0  0  0  0  0  0  0  0  0  0
   -0.3400    3.1998    3.9301 C   0  0  0  0  0  0  0  0  0  0  0  0
    0.8900    1.3919    5.0486 C   0  0  0  0  0  0  0  0  0  0  0  0
   -0.2093    1.3942   -1.0489 C   0  0  0  0  0  0  0  0  0  0  0  0
    1.0381    0.7033   -0.4947 C   0  0  0  0  0  0  0  0  0  0  0  0
    0.3830    0.9542    1.8508 N   0  0  0  0  0  0  0  0  0  0  0  0
    0.9424    2.4460    3.9992 N   0  0  0  0  0  0  0  0  0  0  0  0
    2.7845    1.1127    2.7567 O   0  0  0  0  0  0  0  0  0  0  0  0
    1.7664    3.1150    1.6307 O   0  0  0  0  0  0  0  0  0  0  0  0
    0.9027   -2.1600    0.7768 O   0  0  0  0  0  0  0  0  0  0  0  0
    1.6297    1.9496    2.4859 S   0  0  0  0  0  0  0  0  0  0  0  0
    0.8703    4.0605   -5.5997 H   0  0  0  0  0  0  0  0  0  0  0  0
    1.0887    5.2056   -3.4097 H   0  0  0  0  0  0  0  0  0  0  0  0
    0.1541    1.6865   -5.6921 H   0  0  0  0  0  0  0  0  0  0  0  0
    0.5946    3.9856   -1.3164 H   0  0  0  0  0  0  0  0  0  0  0  0
   -0.3423    0.4578   -3.6047 H   0  0  0  0  0  0  0  0  0  0  0  0
    2.7128   -1.0801    0.6230 H   0  0  0  0  0  0  0  0  0  0  0  0
    2.0124   -1.1653    2.2626 H   0  0  0  0  0  0  0  0  0  0  0  0
   -0.9251   -1.3813    1.4726 H   0  0  0  0  0  0  0  0  0  0  0  0
   -0.7167   -1.3330   -0.3005 H   0  0  0  0  0  0  0  0  0  0  0  0
   -0.2715    3.9700    3.1478 H   0  0  0  0  0  0  0  0  0  0  0  0
   -1.1601    2.5068    3.6914 H   0  0  0  0  0  0  0  0  0  0  0  0
   -0.5359    3.6794    4.9005 H   0  0  0  0  0  0  0  0  0  0  0  0
    1.8487    0.8532    5.0762 H   0  0  0  0  0  0  0  0  0  0  0  0
    0.7032    1.8580    6.0273 H   0  0  0  0  0  0  0  0  0  0  0  0
    0.0790    0.6853    4.8183 H   0  0  0  0  0  0  0  0  0  0  0  0
   -0.6145    2.0873   -0.3002 H   0  0  0  0  0  0  0  0  0  0  0  0
   -0.9957    0.6507   -1.2326 H   0  0  0  0  0  0  0  0  0  0  0  0
    1.4290   -0.0146   -1.2254 H   0  0  0  0  0  0  0  0  0  0  0  0
    1.8311    1.4393   -0.3170 H   0  0  0  0  0  0  0  0  0  0  0  0
   -0.5293    1.4043    1.7008 H   0  0  0  0  0  0  0  0  0  0  0  0
  1  2  1  0  0  0  0
  1  3  2  0  0  0  0
  2  4  2  0  0  0  0
  3  5  1  0  0  0  0
  4  6  1  0  0  0  0
  5  6  2  0  0  0  0
  6 12  1  0  0  0  0
  7  9  1  0  0  0  0
  7 18  1  0  0  0  0
  8  9  1  0  0  0  0
  8 18  1  0  0  0  0
  9 13  1  0  0  0  0
  9 14  1  0  0  0  0
 10 15  1  0  0  0  0
 11 15  1  0  0  0  0
 12 13  1  0  0  0  0
 14 19  1  0  0  0  0
 15 19  1  0  0  0  0
 16 19  2  0  0  0  0
 17 19  2  0  0  0  0
  1 20  1  0  0  0  0
  2 21  1  0  0  0  0
  3 22  1  0  0  0  0
  4 23  1  0  0  0  0
  5 24  1  0  0  0  0
  7 25  1  0  0  0  0
  7 26  1  0  0  0  0
  8 27  1  0  0  0  0
  8 28  1  0  0  0  0
 10 29  1  0  0  0  0
 10 30  1  0  0  0  0
 10 31  1  0  0  0  0
 11 32  1  0  0  0  0
 11 33  1  0  0  0  0
 11 34  1  0  0  0  0
 12 35  1  0  0  0  0
 12 36  1  0  0  0  0
 13 37  1  0  0  0  0
 13 38  1  0  0  0  0
 14 39  1  0  0  0  0
M  END
$$$$
