
  -OEChem-09302017373D

 40 41  0     0  0  0  0  0  0999 V2000
   -0.5914   -1.0799   -7.8267 C   0  0  0  0  0  0  0  0  0  0  0  0
   -0.9877   -0.2017   -6.8181 C   0  0  0  0  0  0  0  0  0  0  0  0
   -0.0607   -2.3271   -7.4967 C   0  0  0  0  0  0  0  0  0  0  0  0
   -0.8532   -0.5705   -5.4796 C   0  0  0  0  0  0  0  0  0  0  0  0
    0.0738   -2.6958   -6.1583 C   0  0  0  0  0  0  0  0  0  0  0  0
   -0.3225   -1.8176   -5.1497 C   0  0  0  0  0  0  0  0  0  0  0  0
    2.7667   -2.2088   -1.1556 C   0  0  0  0  0  0  0  0  0  0  0  0
    1.3589   -3.6937   -1.4031 C   0  0  0  0  0  0  0  0  0  0  0  0
    1.3191   -2.1804   -1.6742 C   0  0  0  0  0  0  0  0  0  0  0  0
    0.1305   -0.2456    2.0273 C   0  0  0  0  0  0  0  0  0  0  0  0
   -0.3734    2.0713    1.2513 C   0  0  0  0  0  0  0  0  0  0  0  0
   -0.1766   -2.2168   -3.7029 C   0  0  0  0  0  0  0  0  0  0  0  0
    1.1848   -1.8022   -3.1419 C   0  0  0  0  0  0  0  0  0  0  0  0
    0.3401   -1.3883   -0.8613 N   0  0  0  0  0  0  0  0  0  0  0  0
   -0.3809    0.6121    0.9087 N   0  3  0  0  0  0  0  0  0  0  0  0
    1.8961    0.5620   -0.2322 O   0  0  0  0  0  0  0  0  0  0  0  0
   -0.1680    1.0387   -1.6096 O   0  0  0  0  0  0  0  0  0  0  0  0
    2.7909   -3.6566   -1.1885 O   0  0  0  0  0  0  0  0  0  0  0  0
    0.5075    0.2996   -0.5600 S   0  0  0  0  0  0  0  0  0  0  0  0
   -0.6974   -0.7932   -8.8688 H   0  0  0  0  0  0  0  0  0  0  0  0
   -1.4019    0.7689   -7.0748 H   0  0  0  0  0  0  0  0  0  0  0  0
    0.2470   -3.0115   -8.2817 H   0  0  0  0  0  0  0  0  0  0  0  0
   -1.1645    0.1204   -4.7004 H   0  0  0  0  0  0  0  0  0  0  0  0
    0.4884   -3.6694   -5.9106 H   0  0  0  0  0  0  0  0  0  0  0  0
    3.5247   -1.7765   -1.8155 H   0  0  0  0  0  0  0  0  0  0  0  0
    2.9207   -1.8384   -0.1369 H   0  0  0  0  0  0  0  0  0  0  0  0
    0.8369   -4.0347   -0.5027 H   0  0  0  0  0  0  0  0  0  0  0  0
    1.0924   -4.3416   -2.2434 H   0  0  0  0  0  0  0  0  0  0  0  0
    1.1614    0.0502    2.2305 H   0  0  0  0  0  0  0  0  0  0  0  0
   -0.5059   -0.0742    2.8976 H   0  0  0  0  0  0  0  0  0  0  0  0
    0.0779   -1.2861    1.7014 H   0  0  0  0  0  0  0  0  0  0  0  0
    0.6588    2.3607    1.4568 H   0  0  0  0  0  0  0  0  0  0  0  0
   -0.7712    2.6178    0.3941 H   0  0  0  0  0  0  0  0  0  0  0  0
   -1.0029    2.2108    2.1322 H   0  0  0  0  0  0  0  0  0  0  0  0
   -0.9788   -1.7591   -3.1095 H   0  0  0  0  0  0  0  0  0  0  0  0
   -0.3054   -3.3023   -3.6029 H   0  0  0  0  0  0  0  0  0  0  0  0
    1.9903   -2.2823   -3.7102 H   0  0  0  0  0  0  0  0  0  0  0  0
    1.3238   -0.7197   -3.2466 H   0  0  0  0  0  0  0  0  0  0  0  0
   -0.6307   -1.7070   -0.9849 H   0  0  0  0  0  0  0  0  0  0  0  0
   -1.3530    0.3360    0.7143 H   0  0  0  0  0  0  0  0  0  0  0  0
  1  2  1  0  0  0  0
  1  3  2  0  0  0  0
  2  4  2  0  0  0  0
  3  5  1  0  0  0  0
  4  6  1  0  0  0  0
  5  6  2  0  0  0  0
  6 12  1  0  0  0  0
  7  9  1  0  0  0  0
  7 18  1  0  0  0  0
  8  9  1  0  0  0  0
  8 18  1  0  0  0  0
  9 13  1  0  0  0  0
  9 14  1  0  0  0  0
 10 15  1  0  0  0  0
 11 15  1  0  0  0  0
 12 13  1  0  0  0  0
 14 19  1  0  0  0  0
 15 19  1  0  0  0  0
 16 19  2  0  0  0  0
 17 19  2  0  0  0  0
  1 20  1  0  0  0  0
  2 21  1  0  0  0  0
  3 22  1  0  0  0  0
  4 23  1  0  0  0  0
  5 24  1  0  0  0  0
  7 25  1  0  0  0  0
  7 26  1  0  0  0  0
  8 27  1  0  0  0  0
  8 28  1  0  0  0  0
 10 29  1  0  0  0  0
 10 30  1  0  0  0  0
 10 31  1  0  0  0  0
 11 32  1  0  0  0  0
 11 33  1  0  0  0  0
 11 34  1  0  0  0  0
 12 35  1  0  0  0  0
 12 36  1  0  0  0  0
 13 37  1  0  0  0  0
 13 38  1  0  0  0  0
 14 39  1  0  0  0  0
 15 40  1  0  0  0  0
M  CHG  1  15   1
M  END
$$$$
