
  -OEChem-08032012103D

 34 35  0     1  0  0  0  0  0999 V2000
    0.9882    1.9856   -6.5299 C   0  0  0  0  0  0  0  0  0  0  0  0
    0.5744    2.9413   -5.6021 C   0  0  0  0  0  0  0  0  0  0  0  0
    1.0581    0.6417   -6.1629 C   0  0  0  0  0  0  0  0  0  0  0  0
    0.2307    2.5532   -4.3071 C   0  0  0  0  0  0  0  0  0  0  0  0
    0.7144    0.2535   -4.8680 C   0  0  0  0  0  0  0  0  0  0  0  0
    0.3006    1.2093   -3.9401 C   0  0  0  0  0  0  0  0  0  0  0  0
   -0.6190    0.9235    0.3219 C   0  0  0  0  0  0  0  0  0  0  0  0
    0.3944   -1.0848    0.0156 C   0  0  0  0  0  0  0  0  0  0  0  0
    0.7602    0.4144   -0.1903 C   0  0  1  0  0  0  0  0  0  0  0  0
    3.9780    0.8874   -0.6682 C   0  0  0  0  0  0  0  0  0  0  0  0
   -0.0706    0.7890   -2.5403 C   0  0  0  0  0  0  0  0  0  0  0  0
    1.1423    0.8173   -1.6109 C   0  0  0  0  0  0  0  0  0  0  0  0
    1.8297    0.8055    0.7407 N   0  5  0  0  0  0  0  0  0  0  0  0
   -2.1068   -1.2082    0.9656 O   0  0  0  0  0  0  0  0  0  0  0  0
    4.0561   -0.1117    1.6801 O   0  0  0  0  0  0  0  0  0  0  0  0
    2.9245   -1.3725   -0.1187 O   0  0  0  0  0  0  0  0  0  0  0  0
   -1.4007   -0.6677   -0.2426 S   0  0  0  0  0  0  0  0  0  0  0  0
    3.1287   -0.0922    0.5526 S   0  0  0  0  0  0  0  0  0  0  0  0
    1.2545    2.2878   -7.5386 H   0  0  0  0  0  0  0  0  0  0  0  0
    0.5189    3.9877   -5.8879 H   0  0  0  0  0  0  0  0  0  0  0  0
    1.3792   -0.1028   -6.8854 H   0  0  0  0  0  0  0  0  0  0  0  0
   -0.0904    3.3048   -3.5907 H   0  0  0  0  0  0  0  0  0  0  0  0
    0.7720   -0.7958   -4.5909 H   0  0  0  0  0  0  0  0  0  0  0  0
   -0.7122    1.0733    1.4037 H   0  0  0  0  0  0  0  0  0  0  0  0
   -1.0052    1.8119   -0.1869 H   0  0  0  0  0  0  0  0  0  0  0  0
    0.8028   -1.7698   -0.7338 H   0  0  0  0  0  0  0  0  0  0  0  0
    0.5871   -1.5012    1.0108 H   0  0  0  0  0  0  0  0  0  0  0  0
    4.9190    0.3923   -0.9132 H   0  0  0  0  0  0  0  0  0  0  0  0
    3.3433    0.9614   -1.5526 H   0  0  0  0  0  0  0  0  0  0  0  0
    4.1645    1.8764   -0.2471 H   0  0  0  0  0  0  0  0  0  0  0  0
   -0.8554    1.4504   -2.1507 H   0  0  0  0  0  0  0  0  0  0  0  0
   -0.5037   -0.2195   -2.5584 H   0  0  0  0  0  0  0  0  0  0  0  0
    1.9178    0.1355   -1.9756 H   0  0  0  0  0  0  0  0  0  0  0  0
    1.5820    1.8200   -1.5881 H   0  0  0  0  0  0  0  0  0  0  0  0
  1  2  1  0  0  0  0
  1  3  2  0  0  0  0
  2  4  2  0  0  0  0
  3  5  1  0  0  0  0
  4  6  1  0  0  0  0
  5  6  2  0  0  0  0
  6 11  1  0  0  0  0
  7  9  1  0  0  0  0
  7 17  1  0  0  0  0
  8  9  1  0  0  0  0
  8 17  1  0  0  0  0
  9 12  1  0  0  0  0
  9 13  1  0  0  0  0
 10 18  1  0  0  0  0
 11 12  1  0  0  0  0
 13 18  1  0  0  0  0
 14 17  2  0  0  0  0
 15 18  2  0  0  0  0
 16 18  2  0  0  0  0
  1 19  1  0  0  0  0
  2 20  1  0  0  0  0
  3 21  1  0  0  0  0
  4 22  1  0  0  0  0
  5 23  1  0  0  0  0
  7 24  1  0  0  0  0
  7 25  1  0  0  0  0
  8 26  1  0  0  0  0
  8 27  1  0  0  0  0
 10 28  1  0  0  0  0
 10 29  1  0  0  0  0
 10 30  1  0  0  0  0
 11 31  1  0  0  0  0
 11 32  1  0  0  0  0
 12 33  1  0  0  0  0
 12 34  1  0  0  0  0
M  CHG  1  13  -1
M  END
$$$$
