
  -OEChem-08032012103D

 42 44  0     1  0  0  0  0  0999 V2000
   -5.7219   -1.4932   -4.1385 C   0  0  0  0  0  0  0  0  0  0  0  0
    1.8442    1.1138   -6.9334 C   0  0  0  0  0  0  0  0  0  0  0  0
   -4.5224   -1.3398   -4.8335 C   0  0  0  0  0  0  0  0  0  0  0  0
   -5.8219   -1.0610   -2.8160 C   0  0  0  0  0  0  0  0  0  0  0  0
    2.7458    1.5659   -5.9700 C   0  0  0  0  0  0  0  0  0  0  0  0
    0.8995    0.1421   -6.6032 C   0  0  0  0  0  0  0  0  0  0  0  0
   -3.4227   -0.7544   -4.2061 C   0  0  0  0  0  0  0  0  0  0  0  0
   -4.7223   -0.4756   -2.1886 C   0  0  0  0  0  0  0  0  0  0  0  0
    2.7028    1.0462   -4.6762 C   0  0  0  0  0  0  0  0  0  0  0  0
    0.8565   -0.3776   -5.3095 C   0  0  0  0  0  0  0  0  0  0  0  0
   -3.5227   -0.3223   -2.8836 C   0  0  0  0  0  0  0  0  0  0  0  0
    1.7581    0.0745   -4.3460 C   0  0  0  0  0  0  0  0  0  0  0  0
   -0.6340    0.9279    0.2745 C   0  0  0  0  0  0  0  0  0  0  0  0
    0.4610   -1.0468    0.1719 C   0  0  0  0  0  0  0  0  0  0  0  0
   -0.2566   -0.0987   -0.8371 C   0  0  1  0  0  0  0  0  0  0  0  0
   -2.3343    0.3105   -2.2046 C   0  0  0  0  0  0  0  0  0  0  0  0
   -1.4708   -0.7377   -1.5033 C   0  0  0  0  0  0  0  0  0  0  0  0
    0.6396    0.4550   -1.9314 N   0  0  0  0  0  0  0  0  0  0  0  0
    0.3818    0.0767    2.5988 O   0  0  0  0  0  0  0  0  0  0  0  0
    1.1376   -1.9187   -2.7799 O   0  0  0  0  0  0  0  0  0  0  0  0
    3.0205   -0.3843   -2.1281 O   0  0  0  0  0  0  0  0  0  0  0  0
    0.8789    0.4236    1.2267 S   0  0  0  0  0  0  0  0  0  0  0  0
    1.7062   -0.5863   -2.7072 S   0  0  0  0  0  0  0  0  0  0  0  0
   -6.5785   -1.9478   -4.6277 H   0  0  0  0  0  0  0  0  0  0  0  0
    1.8775    1.5176   -7.9412 H   0  0  0  0  0  0  0  0  0  0  0  0
   -4.4446   -1.6753   -5.8636 H   0  0  0  0  0  0  0  0  0  0  0  0
   -6.7561   -1.1792   -2.2750 H   0  0  0  0  0  0  0  0  0  0  0  0
    3.4821    2.3217   -6.2269 H   0  0  0  0  0  0  0  0  0  0  0  0
    0.1981   -0.2101   -7.3538 H   0  0  0  0  0  0  0  0  0  0  0  0
   -2.4920   -0.6392   -4.7553 H   0  0  0  0  0  0  0  0  0  0  0  0
   -4.8094   -0.1420   -1.1579 H   0  0  0  0  0  0  0  0  0  0  0  0
    3.4104    1.4048   -3.9335 H   0  0  0  0  0  0  0  0  0  0  0  0
    0.1173   -1.1351   -5.0636 H   0  0  0  0  0  0  0  0  0  0  0  0
   -0.6371    1.9746   -0.0429 H   0  0  0  0  0  0  0  0  0  0  0  0
   -1.5664    0.7215    0.8109 H   0  0  0  0  0  0  0  0  0  0  0  0
   -0.1845   -1.7703    0.6815 H   0  0  0  0  0  0  0  0  0  0  0  0
    1.3310   -1.5756   -0.2281 H   0  0  0  0  0  0  0  0  0  0  0  0
   -1.7328    0.8565   -2.9430 H   0  0  0  0  0  0  0  0  0  0  0  0
   -2.6770    1.0585   -1.4780 H   0  0  0  0  0  0  0  0  0  0  0  0
   -2.0553   -1.2655   -0.7423 H   0  0  0  0  0  0  0  0  0  0  0  0
   -1.1260   -1.4896   -2.2210 H   0  0  0  0  0  0  0  0  0  0  0  0
    0.2651    1.2743   -2.3809 H   0  0  0  0  0  0  0  0  0  0  0  0
  1  3  1  0  0  0  0
  1  4  2  0  0  0  0
  2  5  1  0  0  0  0
  2  6  2  0  0  0  0
  3  7  2  0  0  0  0
  4  8  1  0  0  0  0
  5  9  2  0  0  0  0
  6 10  1  0  0  0  0
  7 11  1  0  0  0  0
  8 11  2  0  0  0  0
  9 12  1  0  0  0  0
 10 12  2  0  0  0  0
 11 16  1  0  0  0  0
 12 23  1  0  0  0  0
 13 15  1  0  0  0  0
 13 22  1  0  0  0  0
 14 15  1  0  0  0  0
 14 22  1  0  0  0  0
 15 17  1  0  0  0  0
 15 18  1  0  0  0  0
 16 17  1  0  0  0  0
 18 23  1  0  0  0  0
 19 22  2  0  0  0  0
 20 23  2  0  0  0  0
 21 23  2  0  0  0  0
  1 24  1  0  0  0  0
  2 25  1  0  0  0  0
  3 26  1  0  0  0  0
  4 27  1  0  0  0  0
  5 28  1  0  0  0  0
  6 29  1  0  0  0  0
  7 30  1  0  0  0  0
  8 31  1  0  0  0  0
  9 32  1  0  0  0  0
 10 33  1  0  0  0  0
 13 34  1  0  0  0  0
 13 35  1  0  0  0  0
 14 36  1  0  0  0  0
 14 37  1  0  0  0  0
 16 38  1  0  0  0  0
 16 39  1  0  0  0  0
 17 40  1  0  0  0  0
 17 41  1  0  0  0  0
 18 42  1  0  0  0  0
M  END
$$$$
