
  -OEChem-08032012103D

 40 41  0     1  0  0  0  0  0999 V2000
   -3.0040   -0.7962   -6.3718 C   0  0  0  0  0  0  0  0  0  0  0  0
   -3.5057   -1.3590   -5.1983 C   0  0  0  0  0  0  0  0  0  0  0  0
   -1.6792   -0.3630   -6.4267 C   0  0  0  0  0  0  0  0  0  0  0  0
   -2.6827   -1.4885   -4.0796 C   0  0  0  0  0  0  0  0  0  0  0  0
   -0.8562   -0.4924   -5.3079 C   0  0  0  0  0  0  0  0  0  0  0  0
   -1.3579   -1.0551   -4.1344 C   0  0  0  0  0  0  0  0  0  0  0  0
    0.2865    1.1050    0.1796 C   0  0  0  0  0  0  0  0  0  0  0  0
   -0.1960   -1.1088    0.2605 C   0  0  0  0  0  0  0  0  0  0  0  0
    0.3466   -0.1049   -0.8030 C   0  0  1  0  0  0  0  0  0  0  0  0
    4.7498    0.1439   -0.5541 C   0  0  0  0  0  0  0  0  0  0  0  0
    4.6196   -0.9505   -2.7491 C   0  0  0  0  0  0  0  0  0  0  0  0
   -0.4678   -1.1945   -2.9253 C   0  0  0  0  0  0  0  0  0  0  0  0
   -0.5468    0.0447   -2.0382 C   0  0  0  0  0  0  0  0  0  0  0  0
    1.7454   -0.4274   -1.2863 N   0  0  0  0  0  0  0  0  0  0  0  0
    4.2461    0.2494   -1.9515 N   0  0  0  0  0  0  0  0  0  0  0  0
   -0.5703    0.2176    2.5511 O   0  0  0  0  0  0  0  0  0  0  0  0
    2.2524    0.6859   -3.5482 O   0  0  0  0  0  0  0  0  0  0  0  0
    2.4434    2.0463   -1.4442 O   0  0  0  0  0  0  0  0  0  0  0  0
   -1.0655    0.2737    1.1363 S   0  0  1  0  0  0  0  0  0  0  0  0
    2.6075    0.7848   -2.1441 S   0  0  0  0  0  0  0  0  0  0  0  0
   -3.6446   -0.6968   -7.2432 H   0  0  0  0  0  0  0  0  0  0  0  0
   -4.5368   -1.6975   -5.1558 H   0  0  0  0  0  0  0  0  0  0  0  0
   -1.2880    0.0742   -7.3405 H   0  0  0  0  0  0  0  0  0  0  0  0
   -3.0822   -1.9280   -3.1694 H   0  0  0  0  0  0  0  0  0  0  0  0
    0.1746   -0.1519   -5.3598 H   0  0  0  0  0  0  0  0  0  0  0  0
    1.1934    1.2641    0.7732 H   0  0  0  0  0  0  0  0  0  0  0  0
   -0.0024    2.0579   -0.2736 H   0  0  0  0  0  0  0  0  0  0  0  0
   -0.8615   -1.8845   -0.1295 H   0  0  0  0  0  0  0  0  0  0  0  0
    0.5718   -1.5884    0.8775 H   0  0  0  0  0  0  0  0  0  0  0  0
    4.4593    1.0425    0.0098 H   0  0  0  0  0  0  0  0  0  0  0  0
    4.3162   -0.7460   -0.0744 H   0  0  0  0  0  0  0  0  0  0  0  0
    5.8463    0.0567   -0.5654 H   0  0  0  0  0  0  0  0  0  0  0  0
    4.2349   -0.8443   -3.7742 H   0  0  0  0  0  0  0  0  0  0  0  0
    5.7151   -1.0458   -2.7767 H   0  0  0  0  0  0  0  0  0  0  0  0
    4.1850   -1.8485   -2.2857 H   0  0  0  0  0  0  0  0  0  0  0  0
   -0.7571   -2.0854   -2.3528 H   0  0  0  0  0  0  0  0  0  0  0  0
    0.5689   -1.3617   -3.2452 H   0  0  0  0  0  0  0  0  0  0  0  0
   -0.2312    0.9342   -2.5898 H   0  0  0  0  0  0  0  0  0  0  0  0
   -1.5739    0.2159   -1.7056 H   0  0  0  0  0  0  0  0  0  0  0  0
    1.8509   -1.3915   -1.6279 H   0  0  0  0  0  0  0  0  0  0  0  0
  1  2  2  0  0  0  0
  1  3  1  0  0  0  0
  2  4  1  0  0  0  0
  3  5  2  0  0  0  0
  4  6  2  0  0  0  0
  5  6  1  0  0  0  0
  6 12  1  0  0  0  0
  7  9  1  0  0  0  0
  7 19  1  0  0  0  0
  8  9  1  0  0  0  0
  8 19  1  0  0  0  0
  9 13  1  0  0  0  0
  9 14  1  0  0  0  0
 10 15  1  0  0  0  0
 11 15  1  0  0  0  0
 12 13  1  0  0  0  0
 14 20  1  0  0  0  0
 15 20  1  0  0  0  0
 16 19  2  0  0  0  0
 17 20  2  0  0  0  0
 18 20  2  0  0  0  0
  1 21  1  0  0  0  0
  2 22  1  0  0  0  0
  3 23  1  0  0  0  0
  4 24  1  0  0  0  0
  5 25  1  0  0  0  0
  7 26  1  0  0  0  0
  7 27  1  0  0  0  0
  8 28  1  0  0  0  0
  8 29  1  0  0  0  0
 10 30  1  0  0  0  0
 10 31  1  0  0  0  0
 10 32  1  0  0  0  0
 11 33  1  0  0  0  0
 11 34  1  0  0  0  0
 11 35  1  0  0  0  0
 12 36  1  0  0  0  0
 12 37  1  0  0  0  0
 13 38  1  0  0  0  0
 13 39  1  0  0  0  0
 14 40  1  0  0  0  0
M  END
$$$$
