
  -OEChem-08032012103D

 41 42  0     1  0  0  0  0  0999 V2000
   -3.0040   -0.7962   -6.3718 C   0  0  0  0  0  0  0  0  0  0  0  0
   -3.5057   -1.3590   -5.1983 C   0  0  0  0  0  0  0  0  0  0  0  0
   -1.6792   -0.3630   -6.4267 C   0  0  0  0  0  0  0  0  0  0  0  0
   -2.6827   -1.4885   -4.0796 C   0  0  0  0  0  0  0  0  0  0  0  0
   -0.8562   -0.4924   -5.3079 C   0  0  0  0  0  0  0  0  0  0  0  0
   -1.3579   -1.0551   -4.1344 C   0  0  0  0  0  0  0  0  0  0  0  0
    0.2865    1.1050    0.1796 C   0  0  0  0  0  0  0  0  0  0  0  0
   -0.1960   -1.1088    0.2605 C   0  0  0  0  0  0  0  0  0  0  0  0
    0.3466   -0.1049   -0.8030 C   0  0  1  0  0  0  0  0  0  0  0  0
    5.3209    1.0513   -2.6701 C   0  0  0  0  0  0  0  0  0  0  0  0
    4.7020    0.1495   -0.4279 C   0  0  0  0  0  0  0  0  0  0  0  0
   -0.4678   -1.1945   -2.9253 C   0  0  0  0  0  0  0  0  0  0  0  0
   -0.5468    0.0447   -2.0382 C   0  0  0  0  0  0  0  0  0  0  0  0
    1.7454   -0.4274   -1.2863 N   0  0  0  0  0  0  0  0  0  0  0  0
    4.3741    0.1892   -1.8898 N   0  3  0  0  0  0  0  0  0  0  0  0
   -0.5703    0.2176    2.5511 O   0  0  0  0  0  0  0  0  0  0  0  0
    2.4865    0.4871   -3.5744 O   0  0  0  0  0  0  0  0  0  0  0  0
    2.5954    2.0042   -1.5566 O   0  0  0  0  0  0  0  0  0  0  0  0
   -1.0655    0.2737    1.1363 S   0  0  1  0  0  0  0  0  0  0  0  0
    2.7245    0.6904   -2.1578 S   0  0  0  0  0  0  0  0  0  0  0  0
   -3.6446   -0.6968   -7.2432 H   0  0  0  0  0  0  0  0  0  0  0  0
   -4.5368   -1.6975   -5.1558 H   0  0  0  0  0  0  0  0  0  0  0  0
   -1.2880    0.0742   -7.3405 H   0  0  0  0  0  0  0  0  0  0  0  0
   -3.0822   -1.9280   -3.1694 H   0  0  0  0  0  0  0  0  0  0  0  0
    0.1746   -0.1519   -5.3598 H   0  0  0  0  0  0  0  0  0  0  0  0
    1.1934    1.2641    0.7732 H   0  0  0  0  0  0  0  0  0  0  0  0
   -0.0024    2.0579   -0.2736 H   0  0  0  0  0  0  0  0  0  0  0  0
   -0.8615   -1.8845   -0.1295 H   0  0  0  0  0  0  0  0  0  0  0  0
    0.5718   -1.5884    0.8775 H   0  0  0  0  0  0  0  0  0  0  0  0
    5.2476    2.0674   -2.2780 H   0  0  0  0  0  0  0  0  0  0  0  0
    6.3270    0.6499   -2.5350 H   0  0  0  0  0  0  0  0  0  0  0  0
    5.0205    1.0129   -3.7190 H   0  0  0  0  0  0  0  0  0  0  0  0
    4.6308    1.1681   -0.0420 H   0  0  0  0  0  0  0  0  0  0  0  0
    3.9781   -0.5065    0.0593 H   0  0  0  0  0  0  0  0  0  0  0  0
    5.7167   -0.2395   -0.3235 H   0  0  0  0  0  0  0  0  0  0  0  0
   -0.7571   -2.0854   -2.3528 H   0  0  0  0  0  0  0  0  0  0  0  0
    0.5689   -1.3617   -3.2452 H   0  0  0  0  0  0  0  0  0  0  0  0
   -0.2312    0.9342   -2.5898 H   0  0  0  0  0  0  0  0  0  0  0  0
   -1.5739    0.2159   -1.7056 H   0  0  0  0  0  0  0  0  0  0  0  0
    1.8486   -1.4075   -1.5829 H   0  0  0  0  0  0  0  0  0  0  0  0
    4.4404   -0.7700   -2.2568 H   0  0  0  0  0  0  0  0  0  0  0  0
  1  2  2  0  0  0  0
  1  3  1  0  0  0  0
  2  4  1  0  0  0  0
  3  5  2  0  0  0  0
  4  6  2  0  0  0  0
  5  6  1  0  0  0  0
  6 12  1  0  0  0  0
  7  9  1  0  0  0  0
  7 19  1  0  0  0  0
  8  9  1  0  0  0  0
  8 19  1  0  0  0  0
  9 13  1  0  0  0  0
  9 14  1  0  0  0  0
 10 15  1  0  0  0  0
 11 15  1  0  0  0  0
 12 13  1  0  0  0  0
 14 20  1  0  0  0  0
 15 20  1  0  0  0  0
 16 19  2  0  0  0  0
 17 20  2  0  0  0  0
 18 20  2  0  0  0  0
  1 21  1  0  0  0  0
  2 22  1  0  0  0  0
  3 23  1  0  0  0  0
  4 24  1  0  0  0  0
  5 25  1  0  0  0  0
  7 26  1  0  0  0  0
  7 27  1  0  0  0  0
  8 28  1  0  0  0  0
  8 29  1  0  0  0  0
 10 30  1  0  0  0  0
 10 31  1  0  0  0  0
 10 32  1  0  0  0  0
 11 33  1  0  0  0  0
 11 34  1  0  0  0  0
 11 35  1  0  0  0  0
 12 36  1  0  0  0  0
 12 37  1  0  0  0  0
 13 38  1  0  0  0  0
 13 39  1  0  0  0  0
 14 40  1  0  0  0  0
 15 41  1  0  0  0  0
M  CHG  1  15   1
M  END
$$$$
