
  -OEChem-08032012103D

 41 42  0     1  0  0  0  0  0999 V2000
   -5.7219   -1.4932   -4.1385 C   0  0  0  0  0  0  0  0  0  0  0  0
   -4.5224   -1.3398   -4.8335 C   0  0  0  0  0  0  0  0  0  0  0  0
   -5.8219   -1.0610   -2.8160 C   0  0  0  0  0  0  0  0  0  0  0  0
   -3.4227   -0.7544   -4.2061 C   0  0  0  0  0  0  0  0  0  0  0  0
   -4.7223   -0.4756   -2.1886 C   0  0  0  0  0  0  0  0  0  0  0  0
   -3.5227   -0.3223   -2.8836 C   0  0  0  0  0  0  0  0  0  0  0  0
   -0.6340    0.9279    0.2745 C   0  0  0  0  0  0  0  0  0  0  0  0
    0.4610   -1.0468    0.1719 C   0  0  0  0  0  0  0  0  0  0  0  0
   -0.2566   -0.0987   -0.8371 C   0  0  1  0  0  0  0  0  0  0  0  0
    3.0675   -0.3996   -5.1347 C   0  0  0  0  0  0  0  0  0  0  0  0
    0.7430    0.5034   -5.0616 C   0  0  0  0  0  0  0  0  0  0  0  0
   -2.3343    0.3105   -2.2046 C   0  0  0  0  0  0  0  0  0  0  0  0
   -1.4708   -0.7377   -1.5033 C   0  0  0  0  0  0  0  0  0  0  0  0
    0.6396    0.4550   -1.9314 N   0  0  0  0  0  0  0  0  0  0  0  0
    2.0307    0.3131   -4.3187 N   0  3  0  0  0  0  0  0  0  0  0  0
    0.3818    0.0767    2.5988 O   0  0  0  0  0  0  0  0  0  0  0  0
    3.0456   -0.4400   -2.1069 O   0  0  0  0  0  0  0  0  0  0  0  0
    1.1631   -1.7829   -3.1256 O   0  0  0  0  0  0  0  0  0  0  0  0
    0.8789    0.4236    1.2267 S   0  0  0  0  0  0  0  0  0  0  0  0
    1.7733   -0.5077   -2.8007 S   0  0  0  0  0  0  0  0  0  0  0  0
   -6.5785   -1.9478   -4.6277 H   0  0  0  0  0  0  0  0  0  0  0  0
   -4.4446   -1.6753   -5.8636 H   0  0  0  0  0  0  0  0  0  0  0  0
   -6.7561   -1.1792   -2.2750 H   0  0  0  0  0  0  0  0  0  0  0  0
   -2.4920   -0.6392   -4.7553 H   0  0  0  0  0  0  0  0  0  0  0  0
   -4.8094   -0.1420   -1.1579 H   0  0  0  0  0  0  0  0  0  0  0  0
   -0.6371    1.9746   -0.0429 H   0  0  0  0  0  0  0  0  0  0  0  0
   -1.5664    0.7215    0.8109 H   0  0  0  0  0  0  0  0  0  0  0  0
   -0.1845   -1.7703    0.6815 H   0  0  0  0  0  0  0  0  0  0  0  0
    1.3310   -1.5756   -0.2281 H   0  0  0  0  0  0  0  0  0  0  0  0
    2.6731   -1.3852   -5.3886 H   0  0  0  0  0  0  0  0  0  0  0  0
    3.2513    0.1931   -6.0328 H   0  0  0  0  0  0  0  0  0  0  0  0
    3.9710   -0.4830   -4.5277 H   0  0  0  0  0  0  0  0  0  0  0  0
    0.3551   -0.4847   -5.3160 H   0  0  0  0  0  0  0  0  0  0  0  0
    0.0543    1.0385   -4.4050 H   0  0  0  0  0  0  0  0  0  0  0  0
    0.9587    1.0836   -5.9608 H   0  0  0  0  0  0  0  0  0  0  0  0
   -1.7328    0.8565   -2.9430 H   0  0  0  0  0  0  0  0  0  0  0  0
   -2.6770    1.0585   -1.4780 H   0  0  0  0  0  0  0  0  0  0  0  0
   -2.0553   -1.2655   -0.7423 H   0  0  0  0  0  0  0  0  0  0  0  0
   -1.1260   -1.4896   -2.2210 H   0  0  0  0  0  0  0  0  0  0  0  0
    0.9526    1.4169   -1.7417 H   0  0  0  0  0  0  0  0  0  0  0  0
    2.3992    1.2431   -4.0774 H   0  0  0  0  0  0  0  0  0  0  0  0
  1  2  1  0  0  0  0
  1  3  2  0  0  0  0
  2  4  2  0  0  0  0
  3  5  1  0  0  0  0
  4  6  1  0  0  0  0
  5  6  2  0  0  0  0
  6 12  1  0  0  0  0
  7  9  1  0  0  0  0
  7 19  1  0  0  0  0
  8  9  1  0  0  0  0
  8 19  1  0  0  0  0
  9 13  1  0  0  0  0
  9 14  1  0  0  0  0
 10 15  1  0  0  0  0
 11 15  1  0  0  0  0
 12 13  1  0  0  0  0
 14 20  1  0  0  0  0
 15 20  1  0  0  0  0
 16 19  2  0  0  0  0
 17 20  2  0  0  0  0
 18 20  2  0  0  0  0
  1 21  1  0  0  0  0
  2 22  1  0  0  0  0
  3 23  1  0  0  0  0
  4 24  1  0  0  0  0
  5 25  1  0  0  0  0
  7 26  1  0  0  0  0
  7 27  1  0  0  0  0
  8 28  1  0  0  0  0
  8 29  1  0  0  0  0
 10 30  1  0  0  0  0
 10 31  1  0  0  0  0
 10 32  1  0  0  0  0
 11 33  1  0  0  0  0
 11 34  1  0  0  0  0
 11 35  1  0  0  0  0
 12 36  1  0  0  0  0
 12 37  1  0  0  0  0
 13 38  1  0  0  0  0
 13 39  1  0  0  0  0
 14 40  1  0  0  0  0
 15 41  1  0  0  0  0
M  CHG  1  15   1
M  END
$$$$
