
  -OEChem-08032012103D

 35 36  0     0  0  0  0  0  0999 V2000
    0.3347   -7.2115    1.1828 C   0  0  0  0  0  0  0  0  0  0  0  0
    1.4351   -6.3886    1.4230 C   0  0  0  0  0  0  0  0  0  0  0  0
   -0.8055   -6.6906    0.5710 C   0  0  0  0  0  0  0  0  0  0  0  0
    1.3952   -5.0447    1.0514 C   0  0  0  0  0  0  0  0  0  0  0  0
   -0.8453   -5.3467    0.1995 C   0  0  0  0  0  0  0  0  0  0  0  0
    0.2550   -4.5237    0.4397 C   0  0  0  0  0  0  0  0  0  0  0  0
   -0.8306   -0.4413   -0.6803 C   0  0  0  0  0  0  0  0  0  0  0  0
    1.0381   -0.0854    0.5196 C   0  0  0  0  0  0  0  0  0  0  0  0
   -0.3535   -0.7283    0.7695 C   0  0  0  0  0  0  0  0  0  0  0  0
   -1.0061   -1.2729    3.9488 C   0  0  0  0  0  0  0  0  0  0  0  0
    0.2111   -3.0710    0.0380 C   0  0  0  0  0  0  0  0  0  0  0  0
   -0.3360   -2.1948    1.1660 C   0  0  0  0  0  0  0  0  0  0  0  0
   -1.1366    0.0486    1.7465 N   0  5  0  0  0  0  0  0  0  0  0  0
    1.2333    0.5132   -2.0705 O   0  0  0  0  0  0  0  0  0  0  0  0
   -0.0440    2.1059   -0.5532 O   0  0  0  0  0  0  0  0  0  0  0  0
    1.0653   -0.0469    3.0972 O   0  0  0  0  0  0  0  0  0  0  0  0
   -0.8182    1.2729    4.0007 O   0  0  0  0  0  0  0  0  0  0  0  0
    0.4294    0.7820   -0.8976 S   0  0  0  0  0  0  0  0  0  0  0  0
   -0.3762    0.1817    3.1373 S   0  0  0  0  0  0  0  0  0  0  0  0
    0.3665   -8.2582    1.4709 H   0  0  0  0  0  0  0  0  0  0  0  0
    2.3234   -6.7943    1.8983 H   0  0  0  0  0  0  0  0  0  0  0  0
   -1.6619   -7.3312    0.3828 H   0  0  0  0  0  0  0  0  0  0  0  0
    2.2572   -4.4110    1.2427 H   0  0  0  0  0  0  0  0  0  0  0  0
   -1.7380   -4.9495   -0.2765 H   0  0  0  0  0  0  0  0  0  0  0  0
   -0.7436   -1.2781   -1.3846 H   0  0  0  0  0  0  0  0  0  0  0  0
   -1.8339   -0.0056   -0.7849 H   0  0  0  0  0  0  0  0  0  0  0  0
    1.3977    0.6097    1.2907 H   0  0  0  0  0  0  0  0  0  0  0  0
    1.8486   -0.7853    0.2814 H   0  0  0  0  0  0  0  0  0  0  0  0
   -0.5667   -1.3285    4.9460 H   0  0  0  0  0  0  0  0  0  0  0  0
   -2.0919   -1.1880    4.0135 H   0  0  0  0  0  0  0  0  0  0  0  0
   -0.7251   -2.1458    3.3577 H   0  0  0  0  0  0  0  0  0  0  0  0
    1.2176   -2.7331   -0.2412 H   0  0  0  0  0  0  0  0  0  0  0  0
   -0.4096   -2.9529   -0.8596 H   0  0  0  0  0  0  0  0  0  0  0  0
   -1.3540   -2.5062    1.4277 H   0  0  0  0  0  0  0  0  0  0  0  0
    0.2747   -2.3135    2.0685 H   0  0  0  0  0  0  0  0  0  0  0  0
  1  2  1  0  0  0  0
  1  3  2  0  0  0  0
  2  4  2  0  0  0  0
  3  5  1  0  0  0  0
  4  6  1  0  0  0  0
  5  6  2  0  0  0  0
  6 11  1  0  0  0  0
  7  9  1  0  0  0  0
  7 18  1  0  0  0  0
  8  9  1  0  0  0  0
  8 18  1  0  0  0  0
  9 12  1  0  0  0  0
  9 13  1  0  0  0  0
 10 19  1  0  0  0  0
 11 12  1  0  0  0  0
 13 19  1  0  0  0  0
 14 18  2  0  0  0  0
 15 18  2  0  0  0  0
 16 19  2  0  0  0  0
 17 19  2  0  0  0  0
  1 20  1  0  0  0  0
  2 21  1  0  0  0  0
  3 22  1  0  0  0  0
  4 23  1  0  0  0  0
  5 24  1  0  0  0  0
  7 25  1  0  0  0  0
  7 26  1  0  0  0  0
  8 27  1  0  0  0  0
  8 28  1  0  0  0  0
 10 29  1  0  0  0  0
 10 30  1  0  0  0  0
 10 31  1  0  0  0  0
 11 32  1  0  0  0  0
 11 33  1  0  0  0  0
 12 34  1  0  0  0  0
 12 35  1  0  0  0  0
M  CHG  1  13  -1
M  END
$$$$
