
  -OEChem-08032012103D

 42 43  0     0  0  0  0  0  0999 V2000
    4.6574    0.0952   -5.8669 C   0  0  0  0  0  0  0  0  0  0  0  0
    3.7203   -0.9379   -5.8763 C   0  0  0  0  0  0  0  0  0  0  0  0
    4.8795    0.8248   -4.6989 C   0  0  0  0  0  0  0  0  0  0  0  0
    3.0052   -1.2415   -4.7178 C   0  0  0  0  0  0  0  0  0  0  0  0
    4.1644    0.5213   -3.5404 C   0  0  0  0  0  0  0  0  0  0  0  0
    3.2272   -0.5118   -3.5498 C   0  0  0  0  0  0  0  0  0  0  0  0
    1.1143   -0.0648    0.3626 C   0  0  0  0  0  0  0  0  0  0  0  0
   -0.7614    0.6366   -0.6263 C   0  0  0  0  0  0  0  0  0  0  0  0
    0.3629   -0.3887   -0.9641 C   0  0  0  0  0  0  0  0  0  0  0  0
   -2.4770   -4.4910   -3.1279 C   0  0  0  0  0  0  0  0  0  0  0  0
   -0.0077   -4.1414   -3.1918 C   0  0  0  0  0  0  0  0  0  0  0  0
    2.4544   -0.8393   -2.2971 C   0  0  0  0  0  0  0  0  0  0  0  0
    1.1548   -0.0377   -2.2176 C   0  0  0  0  0  0  0  0  0  0  0  0
   -0.1092   -1.8236   -1.0872 N   0  0  0  0  0  0  0  0  0  0  0  0
   -1.2736   -3.9558   -2.4111 N   0  3  0  0  0  0  0  0  0  0  0  0
   -0.2393    1.7867    1.7215 O   0  0  0  0  0  0  0  0  0  0  0  0
   -1.1263   -0.5984    1.7125 O   0  0  0  0  0  0  0  0  0  0  0  0
   -2.6412   -2.2810   -1.0643 O   0  0  0  0  0  0  0  0  0  0  0  0
   -1.5511   -1.5397   -3.2199 O   0  0  0  0  0  0  0  0  0  0  0  0
   -0.3958    0.4900    1.0985 S   0  0  0  0  0  0  0  0  0  0  0  0
   -1.5121   -2.2833   -1.9751 S   0  0  0  0  0  0  0  0  0  0  0  0
    5.2151    0.3305   -6.7687 H   0  0  0  0  0  0  0  0  0  0  0  0
    3.5481   -1.5068   -6.7853 H   0  0  0  0  0  0  0  0  0  0  0  0
    5.6097    1.6285   -4.6909 H   0  0  0  0  0  0  0  0  0  0  0  0
    2.2769   -2.0480   -4.7344 H   0  0  0  0  0  0  0  0  0  0  0  0
    4.3439    1.0952   -2.6351 H   0  0  0  0  0  0  0  0  0  0  0  0
    1.5611   -0.9205    0.8768 H   0  0  0  0  0  0  0  0  0  0  0  0
    1.8559    0.7385    0.2977 H   0  0  0  0  0  0  0  0  0  0  0  0
   -0.5940    1.6545   -0.9939 H   0  0  0  0  0  0  0  0  0  0  0  0
   -1.7787    0.3286   -0.8838 H   0  0  0  0  0  0  0  0  0  0  0  0
   -2.5752   -3.9459   -4.0684 H   0  0  0  0  0  0  0  0  0  0  0  0
   -2.3138   -5.5556   -3.3061 H   0  0  0  0  0  0  0  0  0  0  0  0
   -3.3465   -4.3290   -2.4879 H   0  0  0  0  0  0  0  0  0  0  0  0
   -0.1127   -3.5975   -4.1323 H   0  0  0  0  0  0  0  0  0  0  0  0
    0.8143   -3.7401   -2.5959 H   0  0  0  0  0  0  0  0  0  0  0  0
    0.1216   -5.2107   -3.3692 H   0  0  0  0  0  0  0  0  0  0  0  0
    2.2320   -1.9139   -2.2691 H   0  0  0  0  0  0  0  0  0  0  0  0
    3.0739   -0.6335   -1.4146 H   0  0  0  0  0  0  0  0  0  0  0  0
    1.3709    1.0366   -2.2125 H   0  0  0  0  0  0  0  0  0  0  0  0
    0.5327   -0.2339   -3.0979 H   0  0  0  0  0  0  0  0  0  0  0  0
    0.0533   -2.3716   -0.2313 H   0  0  0  0  0  0  0  0  0  0  0  0
   -1.1778   -4.4676   -1.5234 H   0  0  0  0  0  0  0  0  0  0  0  0
  1  2  1  0  0  0  0
  1  3  2  0  0  0  0
  2  4  2  0  0  0  0
  3  5  1  0  0  0  0
  4  6  1  0  0  0  0
  5  6  2  0  0  0  0
  6 12  1  0  0  0  0
  7  9  1  0  0  0  0
  7 20  1  0  0  0  0
  8  9  1  0  0  0  0
  8 20  1  0  0  0  0
  9 13  1  0  0  0  0
  9 14  1  0  0  0  0
 10 15  1  0  0  0  0
 11 15  1  0  0  0  0
 12 13  1  0  0  0  0
 14 21  1  0  0  0  0
 15 21  1  0  0  0  0
 16 20  2  0  0  0  0
 17 20  2  0  0  0  0
 18 21  2  0  0  0  0
 19 21  2  0  0  0  0
  1 22  1  0  0  0  0
  2 23  1  0  0  0  0
  3 24  1  0  0  0  0
  4 25  1  0  0  0  0
  5 26  1  0  0  0  0
  7 27  1  0  0  0  0
  7 28  1  0  0  0  0
  8 29  1  0  0  0  0
  8 30  1  0  0  0  0
 10 31  1  0  0  0  0
 10 32  1  0  0  0  0
 10 33  1  0  0  0  0
 11 34  1  0  0  0  0
 11 35  1  0  0  0  0
 11 36  1  0  0  0  0
 12 37  1  0  0  0  0
 12 38  1  0  0  0  0
 13 39  1  0  0  0  0
 13 40  1  0  0  0  0
 14 41  1  0  0  0  0
 15 42  1  0  0  0  0
M  CHG  1  15   1
M  END
$$$$
