
  -OEChem-08032012103D

 41 42  0     0  0  0  0  0  0999 V2000
    4.6574    0.0952   -5.8669 C   0  0  0  0  0  0  0  0  0  0  0  0
    3.7203   -0.9379   -5.8763 C   0  0  0  0  0  0  0  0  0  0  0  0
    4.8795    0.8248   -4.6989 C   0  0  0  0  0  0  0  0  0  0  0  0
    3.0052   -1.2415   -4.7178 C   0  0  0  0  0  0  0  0  0  0  0  0
    4.1644    0.5213   -3.5404 C   0  0  0  0  0  0  0  0  0  0  0  0
    3.2272   -0.5118   -3.5498 C   0  0  0  0  0  0  0  0  0  0  0  0
    1.1143   -0.0648    0.3626 C   0  0  0  0  0  0  0  0  0  0  0  0
   -0.7614    0.6366   -0.6263 C   0  0  0  0  0  0  0  0  0  0  0  0
    0.3629   -0.3887   -0.9641 C   0  0  0  0  0  0  0  0  0  0  0  0
   -0.1232   -4.1975   -3.1497 C   0  0  0  0  0  0  0  0  0  0  0  0
   -1.5563   -4.7493   -1.2329 C   0  0  0  0  0  0  0  0  0  0  0  0
    2.4544   -0.8393   -2.2971 C   0  0  0  0  0  0  0  0  0  0  0  0
    1.1548   -0.0377   -2.2176 C   0  0  0  0  0  0  0  0  0  0  0  0
   -0.1092   -1.8236   -1.0872 N   0  0  0  0  0  0  0  0  0  0  0  0
   -1.3377   -3.8202   -2.3750 N   0  0  0  0  0  0  0  0  0  0  0  0
   -0.2393    1.7867    1.7215 O   0  0  0  0  0  0  0  0  0  0  0  0
   -1.1263   -0.5984    1.7125 O   0  0  0  0  0  0  0  0  0  0  0  0
   -2.6754   -1.9821   -1.1314 O   0  0  0  0  0  0  0  0  0  0  0  0
   -1.4500   -1.3756   -3.2396 O   0  0  0  0  0  0  0  0  0  0  0  0
   -0.3958    0.4900    1.0985 S   0  0  0  0  0  0  0  0  0  0  0  0
   -1.5264   -2.1361   -2.0050 S   0  0  0  0  0  0  0  0  0  0  0  0
    5.2151    0.3306   -6.7687 H   0  0  0  0  0  0  0  0  0  0  0  0
    3.5481   -1.5068   -6.7853 H   0  0  0  0  0  0  0  0  0  0  0  0
    5.6097    1.6285   -4.6909 H   0  0  0  0  0  0  0  0  0  0  0  0
    2.2769   -2.0480   -4.7344 H   0  0  0  0  0  0  0  0  0  0  0  0
    4.3439    1.0952   -2.6351 H   0  0  0  0  0  0  0  0  0  0  0  0
    1.5611   -0.9205    0.8768 H   0  0  0  0  0  0  0  0  0  0  0  0
    1.8559    0.7385    0.2977 H   0  0  0  0  0  0  0  0  0  0  0  0
   -0.5940    1.6545   -0.9939 H   0  0  0  0  0  0  0  0  0  0  0  0
   -1.7787    0.3286   -0.8838 H   0  0  0  0  0  0  0  0  0  0  0  0
    0.0123   -3.4948   -3.9852 H   0  0  0  0  0  0  0  0  0  0  0  0
    0.7576   -4.1592   -2.4920 H   0  0  0  0  0  0  0  0  0  0  0  0
   -0.2423   -5.2174   -3.5442 H   0  0  0  0  0  0  0  0  0  0  0  0
   -2.4581   -4.4464   -0.6806 H   0  0  0  0  0  0  0  0  0  0  0  0
   -1.6860   -5.7733   -1.6131 H   0  0  0  0  0  0  0  0  0  0  0  0
   -0.6861   -4.7151   -0.5609 H   0  0  0  0  0  0  0  0  0  0  0  0
    2.2320   -1.9139   -2.2691 H   0  0  0  0  0  0  0  0  0  0  0  0
    3.0739   -0.6335   -1.4146 H   0  0  0  0  0  0  0  0  0  0  0  0
    1.3709    1.0366   -2.2125 H   0  0  0  0  0  0  0  0  0  0  0  0
    0.5327   -0.2339   -3.0979 H   0  0  0  0  0  0  0  0  0  0  0  0
    0.0061   -2.3705   -0.2241 H   0  0  0  0  0  0  0  0  0  0  0  0
  1  2  1  0  0  0  0
  1  3  2  0  0  0  0
  2  4  2  0  0  0  0
  3  5  1  0  0  0  0
  4  6  1  0  0  0  0
  5  6  2  0  0  0  0
  6 12  1  0  0  0  0
  7  9  1  0  0  0  0
  7 20  1  0  0  0  0
  8  9  1  0  0  0  0
  8 20  1  0  0  0  0
  9 13  1  0  0  0  0
  9 14  1  0  0  0  0
 10 15  1  0  0  0  0
 11 15  1  0  0  0  0
 12 13  1  0  0  0  0
 14 21  1  0  0  0  0
 15 21  1  0  0  0  0
 16 20  2  0  0  0  0
 17 20  2  0  0  0  0
 18 21  2  0  0  0  0
 19 21  2  0  0  0  0
  1 22  1  0  0  0  0
  2 23  1  0  0  0  0
  3 24  1  0  0  0  0
  4 25  1  0  0  0  0
  5 26  1  0  0  0  0
  7 27  1  0  0  0  0
  7 28  1  0  0  0  0
  8 29  1  0  0  0  0
  8 30  1  0  0  0  0
 10 31  1  0  0  0  0
 10 32  1  0  0  0  0
 10 33  1  0  0  0  0
 11 34  1  0  0  0  0
 11 35  1  0  0  0  0
 11 36  1  0  0  0  0
 12 37  1  0  0  0  0
 12 38  1  0  0  0  0
 13 39  1  0  0  0  0
 13 40  1  0  0  0  0
 14 41  1  0  0  0  0
M  END
$$$$
