
  -OEChem-09302016153D

 34 36  0     0  0  0  0  0  0999 V2000
    1.8848   -1.0340   -0.1124 C   0  0  0  0  0  0  0  0  0  0  0  0
    0.5562    2.1542   11.8782 C   0  0  0  0  0  0  0  0  0  0  0  0
    2.2581    0.0962    0.6149 C   0  0  0  0  0  0  0  0  0  0  0  0
    1.4689   -2.1865    0.5543 C   0  0  0  0  0  0  0  0  0  0  0  0
   -0.4155    1.4411   11.1762 C   0  0  0  0  0  0  0  0  0  0  0  0
    1.9066    1.8532   11.7007 C   0  0  0  0  0  0  0  0  0  0  0  0
    2.2156    0.0739    2.0089 C   0  0  0  0  0  0  0  0  0  0  0  0
    1.4264   -2.2088    1.9483 C   0  0  0  0  0  0  0  0  0  0  0  0
   -0.0368    0.4268   10.2967 C   0  0  0  0  0  0  0  0  0  0  0  0
    2.2853    0.8390   10.8212 C   0  0  0  0  0  0  0  0  0  0  0  0
    2.0604   -0.1467    5.0830 C   0  0  0  0  0  0  0  0  0  0  0  0
    1.7997   -1.0786    2.6757 C   0  0  0  0  0  0  0  0  0  0  0  0
    1.3137    0.1258   10.1192 C   0  0  0  0  0  0  0  0  0  0  0  0
    1.7549   -1.1012    4.1171 C   0  0  0  0  0  0  0  0  0  0  0  0
    1.8035   -0.7962    6.3146 C   0  0  0  0  0  0  0  0  0  0  0  0
    1.3674   -2.0748    6.0603 N   0  3  0  0  0  0  0  0  0  0  0  0
    1.9662   -0.2350    7.5025 N   0  0  0  0  0  0  0  0  0  0  0  0
    0.6846   -2.0970    8.9405 O   0  0  0  0  0  0  0  0  0  0  0  0
    3.1060   -1.6309    9.4087 O   0  0  0  0  0  0  0  0  0  0  0  0
    1.3280   -2.2936    4.6554 O   0  0  0  0  0  0  0  0  0  0  0  0
    1.7936   -1.1635    9.0056 S   0  0  0  0  0  0  0  0  0  0  0  0
    1.9173   -1.0164   -1.1979 H   0  0  0  0  0  0  0  0  0  0  0  0
    0.2619    2.9437   12.5637 H   0  0  0  0  0  0  0  0  0  0  0  0
    2.5821    0.9934    0.0955 H   0  0  0  0  0  0  0  0  0  0  0  0
    1.1771   -3.0662   -0.0121 H   0  0  0  0  0  0  0  0  0  0  0  0
   -1.4670    1.6744   11.3149 H   0  0  0  0  0  0  0  0  0  0  0  0
    2.6628    2.4082   12.2480 H   0  0  0  0  0  0  0  0  0  0  0  0
    2.5072    0.9638    2.5615 H   0  0  0  0  0  0  0  0  0  0  0  0
    1.1009   -3.1152    2.4533 H   0  0  0  0  0  0  0  0  0  0  0  0
   -0.8019   -0.1232    9.7554 H   0  0  0  0  0  0  0  0  0  0  0  0
    3.3400    0.6120   10.6916 H   0  0  0  0  0  0  0  0  0  0  0  0
    2.4125    0.8606    4.9259 H   0  0  0  0  0  0  0  0  0  0  0  0
    1.1044   -2.7864    6.7352 H   0  0  0  0  0  0  0  0  0  0  0  0
    2.7201    0.5268    7.6466 H   0  0  0  0  0  0  0  0  0  0  0  0
  1  3  1  0  0  0  0
  1  4  2  0  0  0  0
  2  5  1  0  0  0  0
  2  6  2  0  0  0  0
  3  7  2  0  0  0  0
  4  8  1  0  0  0  0
  5  9  2  0  0  0  0
  6 10  1  0  0  0  0
  7 12  1  0  0  0  0
  8 12  2  0  0  0  0
  9 13  1  0  0  0  0
 10 13  2  0  0  0  0
 11 14  2  0  0  0  0
 11 15  1  0  0  0  0
 12 14  1  0  0  0  0
 13 21  1  0  0  0  0
 14 20  1  0  0  0  0
 15 16  2  0  0  0  0
 15 17  1  0  0  0  0
 16 20  1  0  0  0  0
 17 21  1  0  0  0  0
 18 21  2  0  0  0  0
 19 21  2  0  0  0  0
  1 22  1  0  0  0  0
  2 23  1  0  0  0  0
  3 24  1  0  0  0  0
  4 25  1  0  0  0  0
  5 26  1  0  0  0  0
  6 27  1  0  0  0  0
  7 28  1  0  0  0  0
  8 29  1  0  0  0  0
  9 30  1  0  0  0  0
 10 31  1  0  0  0  0
 11 32  1  0  0  0  0
 16 33  1  0  0  0  0
 17 34  1  0  0  0  0
M  CHG  1  16   1
M  END
$$$$
