
  -OEChem-09302016153D

 32 34  0     0  0  0  0  0  0999 V2000
    1.8881   -1.0344   -0.1123 C   0  0  0  0  0  0  0  0  0  0  0  0
   -2.9979   -3.2566    7.4109 C   0  0  0  0  0  0  0  0  0  0  0  0
    2.4473   -2.1044    0.5863 C   0  0  0  0  0  0  0  0  0  0  0  0
    1.2848    0.0135    0.5831 C   0  0  0  0  0  0  0  0  0  0  0  0
   -2.0979   -4.0521    8.1200 C   0  0  0  0  0  0  0  0  0  0  0  0
   -2.6716   -1.9346    7.1080 C   0  0  0  0  0  0  0  0  0  0  0  0
    2.4031   -2.1265    1.9802 C   0  0  0  0  0  0  0  0  0  0  0  0
    1.2405   -0.0086    1.9771 C   0  0  0  0  0  0  0  0  0  0  0  0
   -0.8718   -3.5257    8.5264 C   0  0  0  0  0  0  0  0  0  0  0  0
   -1.4455   -1.4082    7.5143 C   0  0  0  0  0  0  0  0  0  0  0  0
    2.1940   -1.9700    5.0807 C   0  0  0  0  0  0  0  0  0  0  0  0
    1.7997   -1.0786    2.6757 C   0  0  0  0  0  0  0  0  0  0  0  0
   -0.5455   -2.2037    8.2235 C   0  0  0  0  0  0  0  0  0  0  0  0
    1.7549   -1.1012    4.1171 C   0  0  0  0  0  0  0  0  0  0  0  0
    1.8082   -1.3563    6.2849 C   0  0  0  0  0  0  0  0  0  0  0  0
    1.1781   -0.1956    6.0836 N   0  0  0  0  0  0  0  0  0  0  0  0
    2.0209   -1.8336    7.5484 N   0  5  0  0  0  0  0  0  0  0  0  0
    0.7221   -0.1103    8.9545 O   0  0  0  0  0  0  0  0  0  0  0  0
    1.3017   -2.2619    9.9847 O   0  0  0  0  0  0  0  0  0  0  0  0
    1.1469   -0.0383    4.7031 O   0  0  0  0  0  0  0  0  0  0  0  0
    1.0384   -1.5226    8.7519 S   0  0  0  0  0  0  0  0  0  0  0  0
    1.9231   -1.0169   -1.1977 H   0  0  0  0  0  0  0  0  0  0  0  0
   -3.9531   -3.6656    7.0948 H   0  0  0  0  0  0  0  0  0  0  0  0
    2.9168   -2.9203    0.0446 H   0  0  0  0  0  0  0  0  0  0  0  0
    0.8503    0.8473    0.0391 H   0  0  0  0  0  0  0  0  0  0  0  0
   -2.3520   -5.0810    8.3570 H   0  0  0  0  0  0  0  0  0  0  0  0
   -3.3728   -1.3153    6.5565 H   0  0  0  0  0  0  0  0  0  0  0  0
    2.8458   -2.9664    2.5104 H   0  0  0  0  0  0  0  0  0  0  0  0
    0.7657    0.8153    2.5045 H   0  0  0  0  0  0  0  0  0  0  0  0
   -0.1784   -4.1538    9.0791 H   0  0  0  0  0  0  0  0  0  0  0  0
   -1.2022   -0.3768    7.2741 H   0  0  0  0  0  0  0  0  0  0  0  0
    2.7145   -2.9055    4.9303 H   0  0  0  0  0  0  0  0  0  0  0  0
  1  3  1  0  0  0  0
  1  4  2  0  0  0  0
  2  5  1  0  0  0  0
  2  6  2  0  0  0  0
  3  7  2  0  0  0  0
  4  8  1  0  0  0  0
  5  9  2  0  0  0  0
  6 10  1  0  0  0  0
  7 12  1  0  0  0  0
  8 12  2  0  0  0  0
  9 13  1  0  0  0  0
 10 13  2  0  0  0  0
 11 14  2  0  0  0  0
 11 15  1  0  0  0  0
 12 14  1  0  0  0  0
 13 21  1  0  0  0  0
 14 20  1  0  0  0  0
 15 16  2  0  0  0  0
 15 17  1  0  0  0  0
 16 20  1  0  0  0  0
 17 21  1  0  0  0  0
 18 21  2  0  0  0  0
 19 21  2  0  0  0  0
  1 22  1  0  0  0  0
  2 23  1  0  0  0  0
  3 24  1  0  0  0  0
  4 25  1  0  0  0  0
  5 26  1  0  0  0  0
  6 27  1  0  0  0  0
  7 28  1  0  0  0  0
  8 29  1  0  0  0  0
  9 30  1  0  0  0  0
 10 31  1  0  0  0  0
 11 32  1  0  0  0  0
M  CHG  1  17  -1
M  END
$$$$
