
  -OEChem-09302016153D

 33 35  0     0  0  0  0  0  0999 V2000
    1.8852   -1.0360   -0.1124 C   0  0  0  0  0  0  0  0  0  0  0  0
   -2.0132   -2.3327   11.7039 C   0  0  0  0  0  0  0  0  0  0  0  0
    0.6848   -0.7859    0.5524 C   0  0  0  0  0  0  0  0  0  0  0  0
    3.0429   -1.3075    0.6168 C   0  0  0  0  0  0  0  0  0  0  0  0
   -1.1467   -3.3231   11.2414 C   0  0  0  0  0  0  0  0  0  0  0  0
   -1.8735   -1.0191   11.2558 C   0  0  0  0  0  0  0  0  0  0  0  0
    0.6420   -0.8072    1.9464 C   0  0  0  0  0  0  0  0  0  0  0  0
    3.0001   -1.3288    2.0108 C   0  0  0  0  0  0  0  0  0  0  0  0
   -0.1406   -3.0000   10.3310 C   0  0  0  0  0  0  0  0  0  0  0  0
   -0.8674   -0.6960   10.3454 C   0  0  0  0  0  0  0  0  0  0  0  0
    1.7997   -1.0786    2.6757 C   0  0  0  0  0  0  0  0  0  0  0  0
   -0.0009   -1.6865    9.8829 C   0  0  0  0  0  0  0  0  0  0  0  0
    0.7021   -1.4383    4.8717 C   0  0  0  0  0  0  0  0  0  0  0  0
    1.7557   -1.1009    4.1294 C   0  0  0  0  0  0  0  0  0  0  0  0
    1.2549   -1.2706    6.2175 C   0  0  0  0  0  0  0  0  0  0  0  0
    0.5590   -1.4960    7.2820 N   0  0  0  0  0  0  0  0  0  0  0  0
    2.5523   -0.8602    6.1427 N   0  0  0  0  0  0  0  0  0  0  0  0
    1.5577    0.1314    8.9520 O   0  0  0  0  0  0  0  0  0  0  0  0
    2.3284   -2.2662    8.8941 O   0  0  0  0  0  0  0  0  0  0  0  0
    2.9220   -0.7386    4.8114 O   0  0  0  0  0  0  0  0  0  0  0  0
    1.2790   -1.2760    8.7294 S   0  0  0  0  0  0  0  0  0  0  0  0
    1.9182   -1.0207   -1.1978 H   0  0  0  0  0  0  0  0  0  0  0  0
   -2.7965   -2.5834   12.4133 H   0  0  0  0  0  0  0  0  0  0  0  0
   -0.2171   -0.5756   -0.0153 H   0  0  0  0  0  0  0  0  0  0  0  0
    3.9774   -1.5034    0.0992 H   0  0  0  0  0  0  0  0  0  0  0  0
   -1.2544   -4.3457   11.5908 H   0  0  0  0  0  0  0  0  0  0  0  0
   -2.5478   -0.2481   11.6166 H   0  0  0  0  0  0  0  0  0  0  0  0
   -0.3012   -0.6102    2.4505 H   0  0  0  0  0  0  0  0  0  0  0  0
    3.9110   -1.5419    2.5652 H   0  0  0  0  0  0  0  0  0  0  0  0
    0.5296   -3.7792    9.9778 H   0  0  0  0  0  0  0  0  0  0  0  0
   -0.7669    0.3307   10.0040 H   0  0  0  0  0  0  0  0  0  0  0  0
   -0.2881   -1.7490    4.5947 H   0  0  0  0  0  0  0  0  0  0  0  0
    3.2078   -0.6586    6.8860 H   0  0  0  0  0  0  0  0  0  0  0  0
  1  3  1  0  0  0  0
  1  4  2  0  0  0  0
  2  5  1  0  0  0  0
  2  6  2  0  0  0  0
  3  7  2  0  0  0  0
  4  8  1  0  0  0  0
  5  9  2  0  0  0  0
  6 10  1  0  0  0  0
  7 11  1  0  0  0  0
  8 11  2  0  0  0  0
  9 12  1  0  0  0  0
 10 12  2  0  0  0  0
 11 14  1  0  0  0  0
 12 21  1  0  0  0  0
 13 14  2  0  0  0  0
 13 15  1  0  0  0  0
 14 20  1  0  0  0  0
 15 16  2  0  0  0  0
 15 17  1  0  0  0  0
 16 21  1  0  0  0  0
 17 20  1  0  0  0  0
 18 21  2  0  0  0  0
 19 21  2  0  0  0  0
  1 22  1  0  0  0  0
  2 23  1  0  0  0  0
  3 24  1  0  0  0  0
  4 25  1  0  0  0  0
  5 26  1  0  0  0  0
  6 27  1  0  0  0  0
  7 28  1  0  0  0  0
  8 29  1  0  0  0  0
  9 30  1  0  0  0  0
 10 31  1  0  0  0  0
 13 32  1  0  0  0  0
 17 33  1  0  0  0  0
M  END
$$$$
