
  -OEChem-09302016153D

 32 33  0     0  0  0  0  0  0999 V2000
   -0.7843   -9.0881   -0.8923 C   0  0  0  0  0  0  0  0  0  0  0  0
   -1.5457   -8.5252    0.1319 C   0  0  0  0  0  0  0  0  0  0  0  0
   -0.1026   -8.2643   -1.7881 C   0  0  0  0  0  0  0  0  0  0  0  0
   -1.6255   -7.1386    0.2603 C   0  0  0  0  0  0  0  0  0  0  0  0
   -0.1824   -6.8777   -1.6597 C   0  0  0  0  0  0  0  0  0  0  0  0
   -1.6615   -4.0371    0.3607 C   0  0  0  0  0  0  0  0  0  0  0  0
   -0.9439   -6.3148   -0.6355 C   0  0  0  0  0  0  0  0  0  0  0  0
   -1.0253   -4.8891   -0.5027 C   0  0  0  0  0  0  0  0  0  0  0  0
   -1.3008   -2.7603   -0.1034 C   0  0  0  0  0  0  0  0  0  0  0  0
    0.5260   -1.1079    2.6664 C   0  0  0  0  0  0  0  0  0  0  0  0
    1.7296    0.5719    1.2709 C   0  0  0  0  0  0  0  0  0  0  0  0
   -0.5020   -2.8161   -1.1728 N   0  0  0  0  0  0  0  0  0  0  0  0
   -1.7318   -1.5170    0.4914 N   0  0  0  0  0  0  0  0  0  0  0  0
    0.7639   -0.5756    1.2850 N   0  3  0  0  0  0  0  0  0  0  0  0
   -0.3833    0.2416   -0.8506 O   0  0  0  0  0  0  0  0  0  0  0  0
   -1.3544    0.8551    1.3826 O   0  0  0  0  0  0  0  0  0  0  0  0
   -0.3300   -4.1724   -1.4225 O   0  0  0  0  0  0  0  0  0  0  0  0
   -0.7361   -0.1253    0.5079 S   0  0  0  0  0  0  0  0  0  0  0  0
   -0.7216  -10.1678   -0.9919 H   0  0  0  0  0  0  0  0  0  0  0  0
   -2.0766   -9.1669    0.8292 H   0  0  0  0  0  0  0  0  0  0  0  0
    0.4912   -8.7026   -2.5849 H   0  0  0  0  0  0  0  0  0  0  0  0
   -2.2210   -6.7152    1.0656 H   0  0  0  0  0  0  0  0  0  0  0  0
    0.3539   -6.2491   -2.3666 H   0  0  0  0  0  0  0  0  0  0  0  0
   -2.2910   -4.3009    1.1985 H   0  0  0  0  0  0  0  0  0  0  0  0
    0.0999   -0.3016    3.2662 H   0  0  0  0  0  0  0  0  0  0  0  0
   -0.1682   -1.9467    2.5863 H   0  0  0  0  0  0  0  0  0  0  0  0
    1.4874   -1.4313    3.0700 H   0  0  0  0  0  0  0  0  0  0  0  0
    1.3026    1.3750    1.8743 H   0  0  0  0  0  0  0  0  0  0  0  0
    2.6721    0.2206    1.6950 H   0  0  0  0  0  0  0  0  0  0  0  0
    1.8591    0.8868    0.2336 H   0  0  0  0  0  0  0  0  0  0  0  0
   -2.3443   -1.6369    1.3092 H   0  0  0  0  0  0  0  0  0  0  0  0
    1.1656   -1.3328    0.7165 H   0  0  0  0  0  0  0  0  0  0  0  0
  1  2  1  0  0  0  0
  1  3  2  0  0  0  0
  2  4  2  0  0  0  0
  3  5  1  0  0  0  0
  4  7  1  0  0  0  0
  5  7  2  0  0  0  0
  6  8  2  0  0  0  0
  6  9  1  0  0  0  0
  7  8  1  0  0  0  0
  8 17  1  0  0  0  0
  9 12  2  0  0  0  0
  9 13  1  0  0  0  0
 10 14  1  0  0  0  0
 11 14  1  0  0  0  0
 12 17  1  0  0  0  0
 13 18  1  0  0  0  0
 14 18  1  0  0  0  0
 15 18  2  0  0  0  0
 16 18  2  0  0  0  0
  1 19  1  0  0  0  0
  2 20  1  0  0  0  0
  3 21  1  0  0  0  0
  4 22  1  0  0  0  0
  5 23  1  0  0  0  0
  6 24  1  0  0  0  0
 10 25  1  0  0  0  0
 10 26  1  0  0  0  0
 10 27  1  0  0  0  0
 11 28  1  0  0  0  0
 11 29  1  0  0  0  0
 11 30  1  0  0  0  0
 13 31  1  0  0  0  0
 14 32  1  0  0  0  0
M  CHG  1  14   1
M  END
$$$$
