
  -OEChem-09302016153D

 32 33  0     0  0  0  0  0  0999 V2000
   -7.1597   -3.2398   -5.1460 C   0  0  0  0  0  0  0  0  0  0  0  0
   -6.1345   -2.3034   -5.0129 C   0  0  0  0  0  0  0  0  0  0  0  0
   -7.4585   -4.1016   -4.0907 C   0  0  0  0  0  0  0  0  0  0  0  0
   -5.4081   -2.2288   -3.8245 C   0  0  0  0  0  0  0  0  0  0  0  0
   -6.7320   -4.0270   -2.9023 C   0  0  0  0  0  0  0  0  0  0  0  0
   -3.9075   -2.1984   -1.1344 C   0  0  0  0  0  0  0  0  0  0  0  0
   -5.7068   -3.0906   -2.7692 C   0  0  0  0  0  0  0  0  0  0  0  0
   -4.9591   -3.0130   -1.5448 C   0  0  0  0  0  0  0  0  0  0  0  0
   -3.6231   -2.6271    0.1846 C   0  0  0  0  0  0  0  0  0  0  0  0
   -0.2218   -0.9270    2.8097 C   0  0  0  0  0  0  0  0  0  0  0  0
   -2.2897   -0.5349    4.0948 C   0  0  0  0  0  0  0  0  0  0  0  0
   -4.4812   -3.6491    0.5146 N   0  3  0  0  0  0  0  0  0  0  0  0
   -2.5951   -2.0615    1.0175 N   0  0  0  0  0  0  0  0  0  0  0  0
   -1.4467   -1.5295    3.3899 N   0  0  0  0  0  0  0  0  0  0  0  0
   -3.4119   -3.2066    3.2165 O   0  0  0  0  0  0  0  0  0  0  0  0
   -1.1919   -3.8132    2.2348 O   0  0  0  0  0  0  0  0  0  0  0  0
   -5.3488   -3.9145   -0.5808 O   0  0  0  0  0  0  0  0  0  0  0  0
   -2.2041   -2.8092    2.5177 S   0  0  0  0  0  0  0  0  0  0  0  0
   -7.7257   -3.2974   -6.0712 H   0  0  0  0  0  0  0  0  0  0  0  0
   -5.9019   -1.6326   -5.8349 H   0  0  0  0  0  0  0  0  0  0  0  0
   -8.2575   -4.8300   -4.1939 H   0  0  0  0  0  0  0  0  0  0  0  0
   -4.6137   -1.4916   -3.7353 H   0  0  0  0  0  0  0  0  0  0  0  0
   -6.9764   -4.7065   -2.0893 H   0  0  0  0  0  0  0  0  0  0  0  0
   -3.4214   -1.4167   -1.6965 H   0  0  0  0  0  0  0  0  0  0  0  0
    0.3647   -1.7059    2.3004 H   0  0  0  0  0  0  0  0  0  0  0  0
   -0.5039   -0.1484    2.0857 H   0  0  0  0  0  0  0  0  0  0  0  0
    0.3823   -0.4795    3.6127 H   0  0  0  0  0  0  0  0  0  0  0  0
   -3.1810   -1.0331    4.5040 H   0  0  0  0  0  0  0  0  0  0  0  0
   -1.7138   -0.0821    4.9153 H   0  0  0  0  0  0  0  0  0  0  0  0
   -2.5999    0.2491    3.3883 H   0  0  0  0  0  0  0  0  0  0  0  0
   -4.5258   -4.1639    1.3887 H   0  0  0  0  0  0  0  0  0  0  0  0
   -1.7910   -1.6940    0.4912 H   0  0  0  0  0  0  0  0  0  0  0  0
  1  2  1  0  0  0  0
  1  3  2  0  0  0  0
  2  4  2  0  0  0  0
  3  5  1  0  0  0  0
  4  7  1  0  0  0  0
  5  7  2  0  0  0  0
  6  8  2  0  0  0  0
  6  9  1  0  0  0  0
  7  8  1  0  0  0  0
  8 17  1  0  0  0  0
  9 12  2  0  0  0  0
  9 13  1  0  0  0  0
 10 14  1  0  0  0  0
 11 14  1  0  0  0  0
 12 17  1  0  0  0  0
 13 18  1  0  0  0  0
 14 18  1  0  0  0  0
 15 18  2  0  0  0  0
 16 18  2  0  0  0  0
  1 19  1  0  0  0  0
  2 20  1  0  0  0  0
  3 21  1  0  0  0  0
  4 22  1  0  0  0  0
  5 23  1  0  0  0  0
  6 24  1  0  0  0  0
 10 25  1  0  0  0  0
 10 26  1  0  0  0  0
 10 27  1  0  0  0  0
 11 28  1  0  0  0  0
 11 29  1  0  0  0  0
 11 30  1  0  0  0  0
 12 31  1  0  0  0  0
 13 32  1  0  0  0  0
M  CHG  1  12   1
M  END
$$$$
