
  -OEChem-08032012103D

 25 26  0     0  0  0  0  0  0999 V2000
    1.8857   -1.0384   -0.1125 C   0  0  0  0  0  0  0  0  0  0  0  0
    1.0232   -1.9147    0.5461 C   0  0  0  0  0  0  0  0  0  0  0  0
    2.7053   -0.1822    0.6231 C   0  0  0  0  0  0  0  0  0  0  0  0
    0.9801   -1.9348    1.9401 C   0  0  0  0  0  0  0  0  0  0  0  0
    2.6623   -0.2023    2.0171 C   0  0  0  0  0  0  0  0  0  0  0  0
    0.9732   -1.8921    4.8388 C   0  0  0  0  0  0  0  0  0  0  0  0
    1.7997   -1.0786    2.6757 C   0  0  0  0  0  0  0  0  0  0  0  0
    1.3135   -1.5226    6.1158 C   0  0  0  0  0  0  0  0  0  0  0  0
    2.5740   -2.7020    8.9780 C   0  0  0  0  0  0  0  0  0  0  0  0
    2.2677   -0.5444    6.0722 N   0  0  0  0  0  0  0  0  0  0  0  0
    2.5339   -0.2903    4.7956 N   0  0  0  0  0  0  0  0  0  0  0  0
    0.7878   -2.0429    7.2573 N   0  5  0  0  0  0  0  0  0  0  0  0
    1.7565   -1.0993    4.0577 N   0  0  0  0  0  0  0  0  0  0  0  0
    0.3075   -1.8570    9.7875 O   0  0  0  0  0  0  0  0  0  0  0  0
    1.8866   -0.2551    8.7622 O   0  0  0  0  0  0  0  0  0  0  0  0
    1.2355   -1.5607    8.6997 S   0  0  0  0  0  0  0  0  0  0  0  0
    1.9209   -1.0235   -1.1978 H   0  0  0  0  0  0  0  0  0  0  0  0
    0.3859   -2.5823   -0.0264 H   0  0  0  0  0  0  0  0  0  0  0  0
    3.3778    0.4989    0.1095 H   0  0  0  0  0  0  0  0  0  0  0  0
    0.3039   -2.6233    2.4410 H   0  0  0  0  0  0  0  0  0  0  0  0
    3.3071    0.4698    2.5782 H   0  0  0  0  0  0  0  0  0  0  0  0
    0.2747   -2.6148    4.4375 H   0  0  0  0  0  0  0  0  0  0  0  0
    3.0032   -2.4965    9.9599 H   0  0  0  0  0  0  0  0  0  0  0  0
    2.1748   -3.7167    8.9399 H   0  0  0  0  0  0  0  0  0  0  0  0
    3.3203   -2.5547    8.1959 H   0  0  0  0  0  0  0  0  0  0  0  0
  1  2  1  0  0  0  0
  1  3  2  0  0  0  0
  2  4  2  0  0  0  0
  3  5  1  0  0  0  0
  4  7  1  0  0  0  0
  5  7  2  0  0  0  0
  6  8  2  0  0  0  0
  6 13  1  0  0  0  0
  7 13  1  0  0  0  0
  8 10  1  0  0  0  0
  8 12  1  0  0  0  0
  9 16  1  0  0  0  0
 10 11  2  0  0  0  0
 11 13  1  0  0  0  0
 12 16  1  0  0  0  0
 14 16  2  0  0  0  0
 15 16  2  0  0  0  0
  1 17  1  0  0  0  0
  2 18  1  0  0  0  0
  3 19  1  0  0  0  0
  4 20  1  0  0  0  0
  5 21  1  0  0  0  0
  6 22  1  0  0  0  0
  9 23  1  0  0  0  0
  9 24  1  0  0  0  0
  9 25  1  0  0  0  0
M  CHG  1  12  -1
M  END
$$$$
