
  -OEChem-09302016153D

 32 33  0     0  0  0  0  0  0999 V2000
   -1.1775   -7.2446   -4.4985 C   0  0  0  0  0  0  0  0  0  0  0  0
   -1.9642   -6.0940   -4.5518 C   0  0  0  0  0  0  0  0  0  0  0  0
   -0.3363   -7.4645   -3.4077 C   0  0  0  0  0  0  0  0  0  0  0  0
   -1.9096   -5.1632   -3.5144 C   0  0  0  0  0  0  0  0  0  0  0  0
   -0.2818   -6.5336   -2.3703 C   0  0  0  0  0  0  0  0  0  0  0  0
   -1.7161   -3.2926   -1.2980 C   0  0  0  0  0  0  0  0  0  0  0  0
   -1.0684   -5.3830   -2.4236 C   0  0  0  0  0  0  0  0  0  0  0  0
   -1.3008   -2.7603   -0.1034 C   0  0  0  0  0  0  0  0  0  0  0  0
   -3.0544   -2.5841    3.1574 C   0  0  0  0  0  0  0  0  0  0  0  0
   -1.0696   -1.9581    4.5310 C   0  0  0  0  0  0  0  0  0  0  0  0
   -0.3858   -3.5937    0.4777 N   0  0  0  0  0  0  0  0  0  0  0  0
   -0.2163   -4.6378   -0.3263 N   0  0  0  0  0  0  0  0  0  0  0  0
   -1.0147   -4.4552   -1.3905 N   0  0  0  0  0  0  0  0  0  0  0  0
   -1.7318   -1.5170    0.4914 N   0  0  0  0  0  0  0  0  0  0  0  0
   -1.5846   -2.2874    3.1615 N   0  3  0  0  0  0  0  0  0  0  0  0
    0.2593   -0.9167    2.0364 O   0  0  0  0  0  0  0  0  0  0  0  0
   -1.9874    0.1321    2.4353 O   0  0  0  0  0  0  0  0  0  0  0  0
   -1.1883   -1.0119    2.0335 S   0  0  0  0  0  0  0  0  0  0  0  0
   -1.2209   -7.9706   -5.3050 H   0  0  0  0  0  0  0  0  0  0  0  0
   -2.6202   -5.9233   -5.4003 H   0  0  0  0  0  0  0  0  0  0  0  0
    0.2749   -8.3615   -3.3662 H   0  0  0  0  0  0  0  0  0  0  0  0
   -2.5286   -4.2709   -3.5680 H   0  0  0  0  0  0  0  0  0  0  0  0
    0.3777   -6.7178   -1.5256 H   0  0  0  0  0  0  0  0  0  0  0  0
   -2.4162   -2.9582   -2.0514 H   0  0  0  0  0  0  0  0  0  0  0  0
   -3.5761   -1.6917    3.5080 H   0  0  0  0  0  0  0  0  0  0  0  0
   -3.3426   -2.8307    2.1338 H   0  0  0  0  0  0  0  0  0  0  0  0
   -3.2267   -3.4281    3.8280 H   0  0  0  0  0  0  0  0  0  0  0  0
   -1.5956   -1.0678    4.8804 H   0  0  0  0  0  0  0  0  0  0  0  0
   -1.2721   -2.8133    5.1787 H   0  0  0  0  0  0  0  0  0  0  0  0
    0.0031   -1.7732    4.4491 H   0  0  0  0  0  0  0  0  0  0  0  0
   -2.6958   -1.2518    0.2493 H   0  0  0  0  0  0  0  0  0  0  0  0
   -1.0893   -3.1264    2.8316 H   0  0  0  0  0  0  0  0  0  0  0  0
  1  2  1  0  0  0  0
  1  3  2  0  0  0  0
  2  4  2  0  0  0  0
  3  5  1  0  0  0  0
  4  7  1  0  0  0  0
  5  7  2  0  0  0  0
  6  8  2  0  0  0  0
  6 13  1  0  0  0  0
  7 13  1  0  0  0  0
  8 11  1  0  0  0  0
  8 14  1  0  0  0  0
  9 15  1  0  0  0  0
 10 15  1  0  0  0  0
 11 12  2  0  0  0  0
 12 13  1  0  0  0  0
 14 18  1  0  0  0  0
 15 18  1  0  0  0  0
 16 18  2  0  0  0  0
 17 18  2  0  0  0  0
  1 19  1  0  0  0  0
  2 20  1  0  0  0  0
  3 21  1  0  0  0  0
  4 22  1  0  0  0  0
  5 23  1  0  0  0  0
  6 24  1  0  0  0  0
  9 25  1  0  0  0  0
  9 26  1  0  0  0  0
  9 27  1  0  0  0  0
 10 28  1  0  0  0  0
 10 29  1  0  0  0  0
 10 30  1  0  0  0  0
 14 31  1  0  0  0  0
 15 32  1  0  0  0  0
M  CHG  1  15   1
M  END
$$$$
