
  -OEChem-09302016153D

 33 34  0     0  0  0  0  0  0999 V2000
    2.6209   -6.7823   -2.9625 C   0  0  0  0  0  0  0  0  0  0  0  0
    2.9209   -5.4658   -2.6126 C   0  0  0  0  0  0  0  0  0  0  0  0
    1.3604   -7.3090   -2.6804 C   0  0  0  0  0  0  0  0  0  0  0  0
    1.9606   -4.6760   -1.9806 C   0  0  0  0  0  0  0  0  0  0  0  0
    0.4000   -6.5191   -2.0484 C   0  0  0  0  0  0  0  0  0  0  0  0
   -0.0978   -3.1072   -0.6699 C   0  0  0  0  0  0  0  0  0  0  0  0
    0.7001   -5.2026   -1.6985 C   0  0  0  0  0  0  0  0  0  0  0  0
   -1.3008   -2.7603   -0.1034 C   0  0  0  0  0  0  0  0  0  0  0  0
   -2.8248   -0.0074   -2.0624 C   0  0  0  0  0  0  0  0  0  0  0  0
   -5.1987   -0.5102   -1.4882 C   0  0  0  0  0  0  0  0  0  0  0  0
   -1.4859   -4.9060   -0.7855 N   0  0  0  0  0  0  0  0  0  0  0  0
   -0.2573   -4.4141   -1.0682 N   0  0  0  0  0  0  0  0  0  0  0  0
   -2.0879   -3.8851   -0.2055 N   0  3  0  0  0  0  0  0  0  0  0  0
   -1.7318   -1.5170    0.4914 N   0  0  0  0  0  0  0  0  0  0  0  0
   -3.7625   -0.9034   -1.3099 N   0  3  0  0  0  0  0  0  0  0  0  0
   -4.2385   -1.9651    0.9685 O   0  0  0  0  0  0  0  0  0  0  0  0
   -3.3936    0.3974    0.8616 O   0  0  0  0  0  0  0  0  0  0  0  0
   -3.3516   -0.9746    0.3879 S   0  0  0  0  0  0  0  0  0  0  0  0
    3.3676   -7.3972   -3.4561 H   0  0  0  0  0  0  0  0  0  0  0  0
    3.9018   -5.0552   -2.8334 H   0  0  0  0  0  0  0  0  0  0  0  0
    1.1271   -8.3338   -2.9544 H   0  0  0  0  0  0  0  0  0  0  0  0
    2.2071   -3.6511   -1.7140 H   0  0  0  0  0  0  0  0  0  0  0  0
   -0.5788   -6.9419   -1.8351 H   0  0  0  0  0  0  0  0  0  0  0  0
    0.8251   -2.5641   -0.8212 H   0  0  0  0  0  0  0  0  0  0  0  0
   -2.9475    1.0055   -1.6745 H   0  0  0  0  0  0  0  0  0  0  0  0
   -1.8092   -0.3713   -1.8960 H   0  0  0  0  0  0  0  0  0  0  0  0
   -3.0914   -0.0575   -3.1199 H   0  0  0  0  0  0  0  0  0  0  0  0
   -5.3175    0.5042   -1.1029 H   0  0  0  0  0  0  0  0  0  0  0  0
   -5.4274   -0.5543   -2.5547 H   0  0  0  0  0  0  0  0  0  0  0  0
   -5.8111   -1.2177   -0.9258 H   0  0  0  0  0  0  0  0  0  0  0  0
   -3.0477   -4.0141    0.1047 H   0  0  0  0  0  0  0  0  0  0  0  0
   -1.0135   -0.7806    0.4835 H   0  0  0  0  0  0  0  0  0  0  0  0
   -3.6498   -1.8592   -1.6728 H   0  0  0  0  0  0  0  0  0  0  0  0
  1  2  1  0  0  0  0
  1  3  2  0  0  0  0
  2  4  2  0  0  0  0
  3  5  1  0  0  0  0
  4  7  1  0  0  0  0
  5  7  2  0  0  0  0
  6  8  2  0  0  0  0
  6 12  1  0  0  0  0
  7 12  1  0  0  0  0
  8 13  1  0  0  0  0
  8 14  1  0  0  0  0
  9 15  1  0  0  0  0
 10 15  1  0  0  0  0
 11 12  1  0  0  0  0
 11 13  2  0  0  0  0
 14 18  1  0  0  0  0
 15 18  1  0  0  0  0
 16 18  2  0  0  0  0
 17 18  2  0  0  0  0
  1 19  1  0  0  0  0
  2 20  1  0  0  0  0
  3 21  1  0  0  0  0
  4 22  1  0  0  0  0
  5 23  1  0  0  0  0
  6 24  1  0  0  0  0
  9 25  1  0  0  0  0
  9 26  1  0  0  0  0
  9 27  1  0  0  0  0
 10 28  1  0  0  0  0
 10 29  1  0  0  0  0
 10 30  1  0  0  0  0
 13 31  1  0  0  0  0
 14 32  1  0  0  0  0
 15 33  1  0  0  0  0
M  CHG  2  13   1  15   1
M  END
$$$$
