[84]F650
  PyMOL2.3          3D                             0

 23 24  0  0  0  0  0  0  0  0999 V2000
  -18.1329   11.4852   24.2654 C   0  0  0  0  0  0  0  0  0  0  0  0
  -18.2978   12.4540   25.2695 N   0  0  0  0  0  0  0  0  0  0  0  0
  -18.7386   10.4130   24.2825 O   0  0  0  0  0  0  0  0  0  0  0  0
  -18.3971   13.8901   25.0274 C   0  0  0  0  0  0  0  0  0  0  0  0
  -15.4149   12.7199   22.0702 N   0  0  0  0  0  0  0  0  0  0  0  0
  -19.2656   14.4697   26.1392 C   0  0  0  0  0  0  0  0  0  0  0  0
  -15.8233   11.5969   21.4671 N   0  0  0  0  0  0  0  0  0  0  0  0
  -19.2384   13.4135   27.2336 C   0  0  0  0  0  0  0  0  0  0  0  0
  -19.0185   12.1059   26.4911 C   0  0  0  0  0  0  0  0  0  0  0  0
  -17.1575   11.7348   23.2100 C   0  0  0  0  0  0  0  0  0  0  0  0
  -16.2195   12.8000   23.1337 C   0  0  0  0  0  0  0  0  0  0  0  0
  -16.8362   10.9596   22.1179 C   0  0  0  0  0  0  0  0  0  0  0  0
  -17.3819   14.2997   25.0620 H   0  0  0  0  0  0  0  0  0  0  0  0
  -18.8437   14.0854   24.0505 H   0  0  0  0  0  0  0  0  0  0  0  0
  -20.2881   14.6184   25.7716 H   0  0  0  0  0  0  0  0  0  0  0  0
  -18.9114   15.4444   26.4945 H   0  0  0  0  0  0  0  0  0  0  0  0
  -18.3967   13.5914   27.9141 H   0  0  0  0  0  0  0  0  0  0  0  0
  -20.1651   13.4123   27.8195 H   0  0  0  0  0  0  0  0  0  0  0  0
  -18.4273   11.3874   27.0690 H   0  0  0  0  0  0  0  0  0  0  0  0
  -19.9742   11.6390   26.2288 H   0  0  0  0  0  0  0  0  0  0  0  0
  -16.0783   13.6236   23.8205 H   0  0  0  0  0  0  0  0  0  0  0  0
  -15.3553   11.3019   20.6205 H   0  0  0  0  0  0  0  0  0  0  0  0
  -17.2143   10.0260   21.7329 H   0  0  0  0  0  0  0  0  0  0  0  0
  1  3  2  0  0  0  0
  1  2  1  0  0  0  0
  2  4  1  0  0  0  0
  4 13  1  0  0  0  0
  4 14  1  0  0  0  0
  5 11  2  0  0  0  0
  4  6  1  0  0  0  0
  6 15  1  0  0  0  0
  6 16  1  0  0  0  0
  5  7  1  0  0  0  0
  7 22  1  0  0  0  0
  6  8  1  0  0  0  0
  8 17  1  0  0  0  0
  8 18  1  0  0  0  0
  2  9  1  0  0  0  0
  8  9  1  0  0  0  0
  9 19  1  0  0  0  0
  9 20  1  0  0  0  0
  1 10  1  0  0  0  0
 10 11  1  0  0  0  0
 11 21  1  0  0  0  0
  7 12  1  0  0  0  0
 10 12  2  0  0  0  0
 12 23  1  0  0  0  0
M  END
$$$$
