[82]F309
  PyMOL2.3          3D                             0

 15 15  0  0  0  0  0  0  0  0999 V2000
  -19.2324   10.4295   25.0995 C   0  0  0  0  0  0  0  0  0  0  0  0
  -22.8454   11.2236   27.4044 O   0  0  0  0  0  0  0  0  0  0  0  0
  -20.7986   13.4803   27.2280 S   0  0  0  0  0  0  0  0  0  0  0  0
  -19.5697   11.6678   25.8594 C   0  0  0  0  0  0  0  0  0  0  0  0
  -21.8722   10.1214   25.6612 O   0  0  0  0  0  0  0  0  0  0  0  0
  -18.6645   12.7712   26.0031 C   0  0  0  0  0  0  0  0  0  0  0  0
  -19.2013   13.8133   26.7247 C   0  0  0  0  0  0  0  0  0  0  0  0
  -20.7643   11.9318   26.5054 C   0  0  0  0  0  0  0  0  0  0  0  0
  -21.9245   11.0924   26.6101 C   0  0  0  0  0  0  0  0  0  0  0  0
  -19.1228   10.6652   24.0360 H   0  0  0  0  0  0  0  0  0  0  0  0
  -18.2876   10.0099   25.4587 H   0  0  0  0  0  0  0  0  0  0  0  0
  -20.0018    9.6577   25.1956 H   0  0  0  0  0  0  0  0  0  0  0  0
  -17.6652   12.7938   25.5875 H   0  0  0  0  0  0  0  0  0  0  0  0
  -18.7338   14.7566   26.9693 H   0  0  0  0  0  0  0  0  0  0  0  0
  -22.6894    9.5798   25.6428 H   0  0  0  0  0  0  0  0  0  0  0  0
  1 10  1  0  0  0  0
  1 11  1  0  0  0  0
  1 12  1  0  0  0  0
  2  9  2  0  0  0  0
  3  7  1  0  0  0  0
  1  4  1  0  0  0  0
  5  9  1  0  0  0  0
  5 15  1  0  0  0  0
  4  6  1  0  0  0  0
  6 13  1  0  0  0  0
  6  7  2  0  0  0  0
  7 14  1  0  0  0  0
  3  8  1  0  0  0  0
  4  8  2  0  0  0  0
  8  9  1  0  0  0  0
M  END
$$$$
