[00]F616
  PyMOL2.3          3D                             0

 26 26  0  0  0  0  0  0  0  0999 V2000
  -19.1925   10.8998   25.2327 C   0  0  0  0  0  0  0  0  0  0  0  0
  -19.6472   13.4576   24.6933 N   0  0  0  0  0  0  0  0  0  0  0  0
  -20.8651   12.3232   26.6449 O   0  0  0  0  0  0  0  0  0  0  0  0
  -20.5036   12.0997   25.2583 S   0  0  0  0  0  0  0  0  0  0  0  0
  -18.1832   13.3765   24.5203 C   0  0  0  0  0  0  0  0  0  0  0  0
  -21.4978   11.6972   24.2834 O   0  0  0  0  0  0  0  0  0  0  0  0
  -17.5106   14.1064   25.6826 C   0  0  0  0  0  0  0  0  0  0  0  0
  -18.4371   14.1417   26.8703 C   0  0  0  0  0  0  0  0  0  0  0  0
  -19.6595   14.8260   26.7877 C   0  0  0  0  0  0  0  0  0  0  0  0
  -20.5649   14.7803   27.8457 C   0  0  0  0  0  0  0  0  0  0  0  0
  -20.2414   14.0585   28.9898 C   0  0  0  0  0  0  0  0  0  0  0  0
  -19.0219   13.3979   29.1022 C   0  0  0  0  0  0  0  0  0  0  0  0
  -18.1176   13.4422   28.0422 C   0  0  0  0  0  0  0  0  0  0  0  0
  -21.1232   13.9901   29.9966 F   0  0  0  0  0  0  0  0  0  0  0  0
  -18.7316   10.8859   24.2435 H   0  0  0  0  0  0  0  0  0  0  0  0
  -18.4539   11.1739   25.9886 H   0  0  0  0  0  0  0  0  0  0  0  0
  -19.6189    9.9206   25.4564 H   0  0  0  0  0  0  0  0  0  0  0  0
  -20.1334   14.1483   24.1088 H   0  0  0  0  0  0  0  0  0  0  0  0
  -17.8760   12.3253   24.4850 H   0  0  0  0  0  0  0  0  0  0  0  0
  -17.9100   13.8372   23.5645 H   0  0  0  0  0  0  0  0  0  0  0  0
  -16.5752   13.5994   25.9504 H   0  0  0  0  0  0  0  0  0  0  0  0
  -17.2420   15.1324   25.3998 H   0  0  0  0  0  0  0  0  0  0  0  0
  -19.9206   15.3749   25.8861 H   0  0  0  0  0  0  0  0  0  0  0  0
  -21.5198   15.2905   27.7697 H   0  0  0  0  0  0  0  0  0  0  0  0
  -18.7821   12.8392   30.0012 H   0  0  0  0  0  0  0  0  0  0  0  0
  -17.1730   12.9105   28.1246 H   0  0  0  0  0  0  0  0  0  0  0  0
  1 15  1  0  0  0  0
  1 16  1  0  0  0  0
  1 17  1  0  0  0  0
  2  4  1  0  0  0  0
  2 18  1  0  0  0  0
  3  4  2  0  0  0  0
  1  4  1  0  0  0  0
  2  5  1  0  0  0  0
  5 19  1  0  0  0  0
  5 20  1  0  0  0  0
  4  6  2  0  0  0  0
  5  7  1  0  0  0  0
  7 21  1  0  0  0  0
  7 22  1  0  0  0  0
  7  8  1  0  0  0  0
  8  9  1  0  0  0  0
  9 23  1  0  0  0  0
  9 10  2  0  0  0  0
 10 24  1  0  0  0  0
 10 11  1  0  0  0  0
 11 12  2  0  0  0  0
 12 25  1  0  0  0  0
  8 13  2  0  0  0  0
 12 13  1  0  0  0  0
 13 26  1  0  0  0  0
 11 14  1  0  0  0  0
M  END
$$$$
