[84]F13
  PyMOL2.3          3D                             0

 16 16  0  0  0  0  0  0  0  0999 V2000
  -18.7667   14.0830   26.0631 C   0  0  0  0  0  0  0  0  0  0  0  0
  -18.5093   12.1480   25.1147 N   0  0  0  0  0  0  0  0  0  0  0  0
  -17.2907   10.5257   22.0091 O   0  0  0  0  0  0  0  0  0  0  0  0
  -18.4053   13.4907   24.8826 C   0  0  0  0  0  0  0  0  0  0  0  0
  -18.8992   11.8404   26.3702 N   0  0  0  0  0  0  0  0  0  0  0  0
  -18.2421   11.0845   24.1678 C   0  0  0  0  0  0  0  0  0  0  0  0
  -17.4172   11.5581   22.9778 C   0  0  0  0  0  0  0  0  0  0  0  0
  -19.0608   13.0364   26.9449 C   0  0  0  0  0  0  0  0  0  0  0  0
  -18.8643   15.9016   26.4640 Br  0  0  0  0  0  0  0  0  0  0  0  0
  -18.0949   13.8909   23.9273 H   0  0  0  0  0  0  0  0  0  0  0  0
  -17.7095   10.2959   24.7151 H   0  0  0  0  0  0  0  0  0  0  0  0
  -19.2037   10.6700   23.8421 H   0  0  0  0  0  0  0  0  0  0  0  0
  -16.4089   11.8196   23.3105 H   0  0  0  0  0  0  0  0  0  0  0  0
  -17.8517   12.4432   22.5000 H   0  0  0  0  0  0  0  0  0  0  0  0
  -18.1724   10.3626   21.6334 H   0  0  0  0  0  0  0  0  0  0  0  0
  -19.3848   13.0801   27.9749 H   0  0  0  0  0  0  0  0  0  0  0  0
  1  9  1  0  0  0  0
  2  4  1  0  0  0  0
  3  7  1  0  0  0  0
  3 15  1  0  0  0  0
  1  4  2  0  0  0  0
  4 10  1  0  0  0  0
  2  5  1  0  0  0  0
  2  6  1  0  0  0  0
  6 11  1  0  0  0  0
  6 12  1  0  0  0  0
  6  7  1  0  0  0  0
  7 13  1  0  0  0  0
  7 14  1  0  0  0  0
  1  8  1  0  0  0  0
  5  8  2  0  0  0  0
  8 16  1  0  0  0  0
M  END
$$$$
