[19]F763
  PyMOL2.3          3D                             0

 19 19  0  0  0  0  0  0  0  0999 V2000
  -18.4685   12.7133   24.7460 C   0  0  0  0  0  0  0  0  0  0  0  0
  -19.4327   12.1378   25.5831 N   0  0  0  0  0  0  0  0  0  0  0  0
  -17.9202   12.1487   23.8008 O   0  0  0  0  0  0  0  0  0  0  0  0
  -19.8725   10.7577   25.3537 C   0  0  0  0  0  0  0  0  0  0  0  0
  -22.1698   10.9423   24.6978 O   0  0  0  0  0  0  0  0  0  0  0  0
  -21.3212   10.5480   25.7685 C   0  0  0  0  0  0  0  0  0  0  0  0
  -19.9893   12.8362   26.6407 C   0  0  0  0  0  0  0  0  0  0  0  0
  -19.6440   14.1004   26.9105 C   0  0  0  0  0  0  0  0  0  0  0  0
  -18.6722   14.7709   26.0816 C   0  0  0  0  0  0  0  0  0  0  0  0
  -18.1017   14.1308   25.0509 C   0  0  0  0  0  0  0  0  0  0  0  0
  -18.2532   16.5415   26.4952 Br  0  0  0  0  0  0  0  0  0  0  0  0
  -19.7337   10.5188   24.2919 H   0  0  0  0  0  0  0  0  0  0  0  0
  -19.2169   10.0785   25.9112 H   0  0  0  0  0  0  0  0  0  0  0  0
  -21.5813   11.1396   26.6523 H   0  0  0  0  0  0  0  0  0  0  0  0
  -21.5192    9.4941   25.9853 H   0  0  0  0  0  0  0  0  0  0  0  0
  -22.2178   11.9139   24.7110 H   0  0  0  0  0  0  0  0  0  0  0  0
  -20.7181   12.3106   27.2470 H   0  0  0  0  0  0  0  0  0  0  0  0
  -20.0931   14.6205   27.7495 H   0  0  0  0  0  0  0  0  0  0  0  0
  -17.3678   14.6018   24.4054 H   0  0  0  0  0  0  0  0  0  0  0  0
  1  3  2  0  0  0  0
  1  2  1  0  0  0  0
  2  4  1  0  0  0  0
  4 12  1  0  0  0  0
  4 13  1  0  0  0  0
  5  6  1  0  0  0  0
  5 16  1  0  0  0  0
  4  6  1  0  0  0  0
  6 14  1  0  0  0  0
  6 15  1  0  0  0  0
  2  7  1  0  0  0  0
  7 17  1  0  0  0  0
  7  8  2  0  0  0  0
  8 18  1  0  0  0  0
  8  9  1  0  0  0  0
  1 10  1  0  0  0  0
  9 10  2  0  0  0  0
 10 19  1  0  0  0  0
  9 11  1  0  0  0  0
M  END
$$$$
