[20]F217
  PyMOL2.3          3D                             0

 28 29  0  0  0  0  0  0  0  0999 V2000
  -17.9294   16.2870   27.9086 C   0  0  0  0  0  0  0  0  0  0  0  0
  -17.5758   15.0317   25.7957 N   0  0  0  0  0  0  0  0  0  0  0  0
  -22.4008   12.5730   28.9139 O   0  0  0  0  0  0  0  0  0  0  0  0
  -18.0072   15.0836   27.0414 C   0  0  0  0  0  0  0  0  0  0  0  0
  -18.5452   13.8726   27.4220 N   0  0  0  0  0  0  0  0  0  0  0  0
  -17.8930   13.7780   25.3384 C   0  0  0  0  0  0  0  0  0  0  0  0
  -21.2924   12.9607   26.9215 N   0  0  0  0  0  0  0  0  0  0  0  0
  -17.6901   13.2071   24.0699 C   0  0  0  0  0  0  0  0  0  0  0  0
  -18.1444   11.9034   23.8395 C   0  0  0  0  0  0  0  0  0  0  0  0
  -18.7761   11.1767   24.8498 C   0  0  0  0  0  0  0  0  0  0  0  0
  -18.9684   11.7226   26.1223 C   0  0  0  0  0  0  0  0  0  0  0  0
  -18.5156   13.0303   26.3332 C   0  0  0  0  0  0  0  0  0  0  0  0
  -19.0836   13.5267   28.7264 C   0  0  0  0  0  0  0  0  0  0  0  0
  -20.5012   14.0574   28.9136 C   0  0  0  0  0  0  0  0  0  0  0  0
  -21.5045   13.1233   28.2783 C   0  0  0  0  0  0  0  0  0  0  0  0
  -18.1799   17.1792   27.3276 H   0  0  0  0  0  0  0  0  0  0  0  0
  -18.6226   16.2493   28.7545 H   0  0  0  0  0  0  0  0  0  0  0  0
  -16.9139   16.4060   28.2976 H   0  0  0  0  0  0  0  0  0  0  0  0
  -17.2028   13.7658   23.2771 H   0  0  0  0  0  0  0  0  0  0  0  0
  -18.0081   11.4537   22.8596 H   0  0  0  0  0  0  0  0  0  0  0  0
  -19.1269   10.1683   24.6439 H   0  0  0  0  0  0  0  0  0  0  0  0
  -19.4604   11.1549   26.9032 H   0  0  0  0  0  0  0  0  0  0  0  0
  -19.0600   12.4350   28.8145 H   0  0  0  0  0  0  0  0  0  0  0  0
  -18.3959   13.9132   29.4873 H   0  0  0  0  0  0  0  0  0  0  0  0
  -20.7539   14.1829   29.9759 H   0  0  0  0  0  0  0  0  0  0  0  0
  -20.6065   15.0369   28.4358 H   0  0  0  0  0  0  0  0  0  0  0  0
  -21.6724   12.1121   26.5146 H   0  0  0  0  0  0  0  0  0  0  0  0
  -21.5336   13.7628   26.3407 H   0  0  0  0  0  0  0  0  0  0  0  0
  1 16  1  0  0  0  0
  1 17  1  0  0  0  0
  1 18  1  0  0  0  0
  2  4  2  0  0  0  0
  3 15  2  0  0  0  0
  1  4  1  0  0  0  0
  4  5  1  0  0  0  0
  5 12  1  0  0  0  0
  2  6  1  0  0  0  0
  7 15  1  0  0  0  0
  7 27  1  0  0  0  0
  7 28  1  0  0  0  0
  6  8  1  0  0  0  0
  8 19  1  0  0  0  0
  8  9  2  0  0  0  0
  9 20  1  0  0  0  0
  9 10  1  0  0  0  0
 10 21  1  0  0  0  0
 10 11  2  0  0  0  0
 11 22  1  0  0  0  0
  6 12  2  0  0  0  0
 11 12  1  0  0  0  0
  5 13  1  0  0  0  0
 13 23  1  0  0  0  0
 13 24  1  0  0  0  0
 13 14  1  0  0  0  0
 14 25  1  0  0  0  0
 14 26  1  0  0  0  0
 14 15  1  0  0  0  0
M  END
$$$$
