[59]F584
  PyMOL2.3          3D                             0

 27 28  0  0  0  0  0  0  0  0999 V2000
  -22.6550   13.7401   28.0711 C   0  0  0  0  0  0  0  0  0  0  0  0
  -17.5080   13.4124   24.7998 N   0  0  0  0  0  0  0  0  0  0  0  0
  -21.8117   12.9578   27.2235 O   0  0  0  0  0  0  0  0  0  0  0  0
  -20.6848   13.6566   26.8438 C   0  0  0  0  0  0  0  0  0  0  0  0
  -16.2374   12.2931   23.3025 O   0  0  0  0  0  0  0  0  0  0  0  0
  -20.4768   14.9171   27.4114 C   0  0  0  0  0  0  0  0  0  0  0  0
  -19.3327   15.6239   27.0957 C   0  0  0  0  0  0  0  0  0  0  0  0
  -18.4018   15.0630   26.2267 C   0  0  0  0  0  0  0  0  0  0  0  0
  -18.5787   13.7823   25.6503 C   0  0  0  0  0  0  0  0  0  0  0  0
  -17.2927   12.3689   23.9431 C   0  0  0  0  0  0  0  0  0  0  0  0
  -18.3579   11.3401   23.7207 C   0  0  0  0  0  0  0  0  0  0  0  0
  -18.8907   10.7930   25.0228 C   0  0  0  0  0  0  0  0  0  0  0  0
  -20.0466   11.6380   25.5256 C   0  0  0  0  0  0  0  0  0  0  0  0
  -19.7304   13.0419   25.9828 C   0  0  0  0  0  0  0  0  0  0  0  0
  -22.2711   13.7303   29.0972 H   0  0  0  0  0  0  0  0  0  0  0  0
  -22.7637   14.7704   27.7152 H   0  0  0  0  0  0  0  0  0  0  0  0
  -23.6448   13.2740   28.0856 H   0  0  0  0  0  0  0  0  0  0  0  0
  -21.1998   15.3466   28.0985 H   0  0  0  0  0  0  0  0  0  0  0  0
  -19.1595   16.6067   27.5224 H   0  0  0  0  0  0  0  0  0  0  0  0
  -17.5135   15.6509   25.9961 H   0  0  0  0  0  0  0  0  0  0  0  0
  -16.7357   14.0764   24.7996 H   0  0  0  0  0  0  0  0  0  0  0  0
  -17.8941   10.5160   23.1632 H   0  0  0  0  0  0  0  0  0  0  0  0
  -19.1390   11.7616   23.0792 H   0  0  0  0  0  0  0  0  0  0  0  0
  -18.1021   10.7166   25.7817 H   0  0  0  0  0  0  0  0  0  0  0  0
  -19.2635    9.7761   24.8470 H   0  0  0  0  0  0  0  0  0  0  0  0
  -20.8295   11.6919   24.7580 H   0  0  0  0  0  0  0  0  0  0  0  0
  -20.4714   11.0834   26.3728 H   0  0  0  0  0  0  0  0  0  0  0  0
  1 15  1  0  0  0  0
  1 16  1  0  0  0  0
  1 17  1  0  0  0  0
  2  9  1  0  0  0  0
  2 21  1  0  0  0  0
  1  3  1  0  0  0  0
  3  4  1  0  0  0  0
  5 10  2  0  0  0  0
  4  6  1  0  0  0  0
  6 18  1  0  0  0  0
  6  7  2  0  0  0  0
  7 19  1  0  0  0  0
  7  8  1  0  0  0  0
  8 20  1  0  0  0  0
  8  9  2  0  0  0  0
  2 10  1  0  0  0  0
 10 11  1  0  0  0  0
 11 22  1  0  0  0  0
 11 23  1  0  0  0  0
 11 12  1  0  0  0  0
 12 24  1  0  0  0  0
 12 25  1  0  0  0  0
 12 13  1  0  0  0  0
 13 26  1  0  0  0  0
 13 27  1  0  0  0  0
  4 14  2  0  0  0  0
  9 14  1  0  0  0  0
 13 14  1  0  0  0  0
M  END
$$$$
