[22]F467
  PyMOL2.3          3D                             0

 23 23  0  0  0  0  0  0  0  0999 V2000
  -20.4628   10.3504   25.4528 C   0  0  0  0  0  0  0  0  0  0  0  0
  -19.1572   10.9958   25.3587 N   0  0  0  0  0  0  0  0  0  0  0  0
  -17.3937   10.8212   22.0963 O   0  0  0  0  0  0  0  0  0  0  0  0
  -18.1739   10.5250   24.3700 C   0  0  0  0  0  0  0  0  0  0  0  0
  -18.2601   13.2149   25.0846 N   0  0  0  0  0  0  0  0  0  0  0  0
  -17.8517   11.5078   23.2512 C   0  0  0  0  0  0  0  0  0  0  0  0
  -19.1272   12.3637   25.6995 C   0  0  0  0  0  0  0  0  0  0  0  0
  -20.0307   12.8551   26.6526 C   0  0  0  0  0  0  0  0  0  0  0  0
  -20.0029   14.2013   27.0122 C   0  0  0  0  0  0  0  0  0  0  0  0
  -19.1198   15.0624   26.3826 C   0  0  0  0  0  0  0  0  0  0  0  0
  -18.2875   14.5262   25.4208 C   0  0  0  0  0  0  0  0  0  0  0  0
  -21.1303   10.6925   24.6530 H   0  0  0  0  0  0  0  0  0  0  0  0
  -20.3663    9.2623   25.3790 H   0  0  0  0  0  0  0  0  0  0  0  0
  -20.9423   10.5563   26.4164 H   0  0  0  0  0  0  0  0  0  0  0  0
  -18.5719    9.6053   23.9246 H   0  0  0  0  0  0  0  0  0  0  0  0
  -17.2233   10.2451   24.8414 H   0  0  0  0  0  0  0  0  0  0  0  0
  -17.1035   12.2481   23.5485 H   0  0  0  0  0  0  0  0  0  0  0  0
  -18.7574   12.0614   22.9796 H   0  0  0  0  0  0  0  0  0  0  0  0
  -18.0814   10.1805   21.8468 H   0  0  0  0  0  0  0  0  0  0  0  0
  -20.7468   12.1995   27.1414 H   0  0  0  0  0  0  0  0  0  0  0  0
  -20.6741   14.5720   27.7810 H   0  0  0  0  0  0  0  0  0  0  0  0
  -19.0885   16.1160   26.6327 H   0  0  0  0  0  0  0  0  0  0  0  0
  -17.5947   15.1563   24.8723 H   0  0  0  0  0  0  0  0  0  0  0  0
  1 12  1  0  0  0  0
  1 13  1  0  0  0  0
  1 14  1  0  0  0  0
  1  2  1  0  0  0  0
  3  6  1  0  0  0  0
  3 19  1  0  0  0  0
  2  4  1  0  0  0  0
  4 15  1  0  0  0  0
  4 16  1  0  0  0  0
  5  7  2  0  0  0  0
  5 11  1  0  0  0  0
  4  6  1  0  0  0  0
  6 17  1  0  0  0  0
  6 18  1  0  0  0  0
  2  7  1  0  0  0  0
  7  8  1  0  0  0  0
  8 20  1  0  0  0  0
  8  9  2  0  0  0  0
  9 21  1  0  0  0  0
  9 10  1  0  0  0  0
 10 22  1  0  0  0  0
 10 11  2  0  0  0  0
 11 23  1  0  0  0  0
M  END
$$$$
