[64]F229
  PyMOL2.3          3D                             0

 27 28  0  0  0  0  0  0  0  0999 V2000
  -18.5507   11.5990   24.8458 C   0  0  0  0  0  0  0  0  0  0  0  0
  -20.8643   11.5996   25.6359 N   0  0  0  0  0  0  0  0  0  0  0  0
  -19.6354   12.1274   25.7044 C   0  0  0  0  0  0  0  0  0  0  0  0
  -21.5604   12.3036   26.5399 N   0  0  0  0  0  0  0  0  0  0  0  0
  -20.8284   13.2576   27.1790 C   0  0  0  0  0  0  0  0  0  0  0  0
  -17.6600   13.5420   28.2467 N   0  0  0  0  0  0  0  0  0  0  0  0
  -19.5517   13.1757   26.6638 C   0  0  0  0  0  0  0  0  0  0  0  0
  -18.3607   13.9984   27.0381 C   0  0  0  0  0  0  0  0  0  0  0  0
  -18.2959   13.8318   29.4705 C   0  0  0  0  0  0  0  0  0  0  0  0
  -19.3052   14.8056   29.5332 C   0  0  0  0  0  0  0  0  0  0  0  0
  -19.9724   15.0697   30.7338 C   0  0  0  0  0  0  0  0  0  0  0  0
  -19.6331   14.3735   31.8927 C   0  0  0  0  0  0  0  0  0  0  0  0
  -18.6433   13.3974   31.8487 C   0  0  0  0  0  0  0  0  0  0  0  0
  -18.0018   13.1220   30.6433 C   0  0  0  0  0  0  0  0  0  0  0  0
  -17.0770   12.1505   30.6267 F   0  0  0  0  0  0  0  0  0  0  0  0
  -17.8389   11.0274   25.4500 H   0  0  0  0  0  0  0  0  0  0  0  0
  -18.9383   10.9429   24.0604 H   0  0  0  0  0  0  0  0  0  0  0  0
  -18.0110   12.4188   24.3608 H   0  0  0  0  0  0  0  0  0  0  0  0
  -22.5383   12.0777   26.6737 H   0  0  0  0  0  0  0  0  0  0  0  0
  -21.2711   13.8959   27.9308 H   0  0  0  0  0  0  0  0  0  0  0  0
  -18.6760   15.0357   27.2066 H   0  0  0  0  0  0  0  0  0  0  0  0
  -17.6983   14.0432   26.1638 H   0  0  0  0  0  0  0  0  0  0  0  0
  -17.4568   12.5439   28.1838 H   0  0  0  0  0  0  0  0  0  0  0  0
  -19.5953   15.3584   28.6420 H   0  0  0  0  0  0  0  0  0  0  0  0
  -20.7609   15.8166   30.7635 H   0  0  0  0  0  0  0  0  0  0  0  0
  -20.1455   14.5852   32.8264 H   0  0  0  0  0  0  0  0  0  0  0  0
  -18.3742   12.8470   32.7447 H   0  0  0  0  0  0  0  0  0  0  0  0
  1 16  1  0  0  0  0
  1 17  1  0  0  0  0
  1 18  1  0  0  0  0
  2  3  2  0  0  0  0
  1  3  1  0  0  0  0
  2  4  1  0  0  0  0
  4 19  1  0  0  0  0
  4  5  1  0  0  0  0
  5 20  1  0  0  0  0
  6  8  1  0  0  0  0
  6 23  1  0  0  0  0
  3  7  1  0  0  0  0
  5  7  2  0  0  0  0
  7  8  1  0  0  0  0
  8 21  1  0  0  0  0
  8 22  1  0  0  0  0
  6  9  1  0  0  0  0
  9 10  1  0  0  0  0
 10 24  1  0  0  0  0
 10 11  2  0  0  0  0
 11 25  1  0  0  0  0
 11 12  1  0  0  0  0
 12 26  1  0  0  0  0
 12 13  2  0  0  0  0
 13 27  1  0  0  0  0
  9 14  2  0  0  0  0
 13 14  1  0  0  0  0
 14 15  1  0  0  0  0
M  END
$$$$
