[23]F666
  PyMOL2.3          3D                             0

 35 37  0  0  0  0  0  0  0  0999 V2000
  -16.7383   11.8204   22.7620 C   0  0  0  0  0  0  0  0  0  0  0  0
  -18.6999   13.7683   25.9580 N   0  0  0  0  0  0  0  0  0  0  0  0
  -22.0030   12.8781   28.4232 O   0  0  0  0  0  0  0  0  0  0  0  0
  -16.2004   12.9775   23.3098 C   0  0  0  0  0  0  0  0  0  0  0  0
  -20.5168   14.6153   27.9545 N   0  0  0  0  0  0  0  0  0  0  0  0
  -16.8586   13.6050   24.3717 C   0  0  0  0  0  0  0  0  0  0  0  0
  -18.0707   13.0992   24.8841 C   0  0  0  0  0  0  0  0  0  0  0  0
  -18.5915   11.9329   24.2934 C   0  0  0  0  0  0  0  0  0  0  0  0
  -17.9254   11.2902   23.2473 C   0  0  0  0  0  0  0  0  0  0  0  0
  -18.7897   13.0135   27.2245 C   0  0  0  0  0  0  0  0  0  0  0  0
  -19.2815   13.9335   28.3461 C   0  0  0  0  0  0  0  0  0  0  0  0
  -20.4072   15.3550   26.7018 C   0  0  0  0  0  0  0  0  0  0  0  0
  -19.9534   14.4383   25.5637 C   0  0  0  0  0  0  0  0  0  0  0  0
  -21.7501   14.0745   28.3277 C   0  0  0  0  0  0  0  0  0  0  0  0
  -22.8202   15.0772   28.5906 C   0  0  0  0  0  0  0  0  0  0  0  0
  -23.7859   14.8726   29.7310 C   0  0  0  0  0  0  0  0  0  0  0  0
  -22.7655   15.9666   29.8064 C   0  0  0  0  0  0  0  0  0  0  0  0
  -16.1036   11.2057   21.7542 F   0  0  0  0  0  0  0  0  0  0  0  0
  -15.2754   13.3881   22.9172 H   0  0  0  0  0  0  0  0  0  0  0  0
  -16.4218   14.5094   24.7914 H   0  0  0  0  0  0  0  0  0  0  0  0
  -19.5213   11.4951   24.6454 H   0  0  0  0  0  0  0  0  0  0  0  0
  -18.3369   10.3815   22.8190 H   0  0  0  0  0  0  0  0  0  0  0  0
  -17.8113   12.6032   27.5003 H   0  0  0  0  0  0  0  0  0  0  0  0
  -19.4943   12.1781   27.1160 H   0  0  0  0  0  0  0  0  0  0  0  0
  -18.5356   14.7078   28.5584 H   0  0  0  0  0  0  0  0  0  0  0  0
  -19.4478   13.3578   29.2635 H   0  0  0  0  0  0  0  0  0  0  0  0
  -19.6675   16.1459   26.8711 H   0  0  0  0  0  0  0  0  0  0  0  0
  -21.3616   15.8279   26.4496 H   0  0  0  0  0  0  0  0  0  0  0  0
  -19.8061   15.0524   24.6664 H   0  0  0  0  0  0  0  0  0  0  0  0
  -20.7262   13.6912   25.3442 H   0  0  0  0  0  0  0  0  0  0  0  0
  -23.2521   15.5030   27.6889 H   0  0  0  0  0  0  0  0  0  0  0  0
  -24.8180   15.1711   29.5852 H   0  0  0  0  0  0  0  0  0  0  0  0
  -23.6577   14.0174   30.3815 H   0  0  0  0  0  0  0  0  0  0  0  0
  -23.1132   16.9873   29.6973 H   0  0  0  0  0  0  0  0  0  0  0  0
  -21.9515   15.8444   30.5096 H   0  0  0  0  0  0  0  0  0  0  0  0
  1 18  1  0  0  0  0
  2  7  1  0  0  0  0
  3 14  2  0  0  0  0
  1  4  1  0  0  0  0
  4 19  1  0  0  0  0
  5 11  1  0  0  0  0
  4  6  2  0  0  0  0
  6 20  1  0  0  0  0
  6  7  1  0  0  0  0
  7  8  2  0  0  0  0
  8 21  1  0  0  0  0
  1  9  2  0  0  0  0
  8  9  1  0  0  0  0
  9 22  1  0  0  0  0
  2 10  1  0  0  0  0
 10 23  1  0  0  0  0
 10 24  1  0  0  0  0
 10 11  1  0  0  0  0
 11 25  1  0  0  0  0
 11 26  1  0  0  0  0
  5 12  1  0  0  0  0
 12 27  1  0  0  0  0
 12 28  1  0  0  0  0
  2 13  1  0  0  0  0
 12 13  1  0  0  0  0
 13 29  1  0  0  0  0
 13 30  1  0  0  0  0
  5 14  1  0  0  0  0
 14 15  1  0  0  0  0
 15 31  1  0  0  0  0
 15 16  1  0  0  0  0
 16 32  1  0  0  0  0
 16 33  1  0  0  0  0
 15 17  1  0  0  0  0
 16 17  1  0  0  0  0
 17 34  1  0  0  0  0
 17 35  1  0  0  0  0
M  END
$$$$
