[31]F535
  PyMOL2.3          3D                             0

 22 23  0  0  0  0  0  0  0  0999 V2000
  -16.7934   16.5398   27.1363 C   0  0  0  0  0  0  0  0  0  0  0  0
  -17.3915   15.6879   26.1163 N   0  0  0  0  0  0  0  0  0  0  0  0
  -18.8422   15.6251   26.2681 C   0  0  0  0  0  0  0  0  0  0  0  0
  -20.0876   13.7691   27.4017 N   0  0  0  0  0  0  0  0  0  0  0  0
  -19.2785   14.2163   26.4584 C   0  0  0  0  0  0  0  0  0  0  0  0
  -20.2719   12.4166   27.2158 N   0  0  0  0  0  0  0  0  0  0  0  0
  -19.5676   12.0574   26.1655 C   0  0  0  0  0  0  0  0  0  0  0  0
  -18.8925   13.1590   25.6619 N   0  0  0  0  0  0  0  0  0  0  0  0
  -19.3911   10.8119   25.4964 C   0  0  0  0  0  0  0  0  0  0  0  0
  -18.5628   10.7404   24.4352 C   0  0  0  0  0  0  0  0  0  0  0  0
  -17.8339   11.9066   23.9665 C   0  0  0  0  0  0  0  0  0  0  0  0
  -18.0155   13.0899   24.5811 C   0  0  0  0  0  0  0  0  0  0  0  0
  -17.1309   17.5763   27.0410 H   0  0  0  0  0  0  0  0  0  0  0  0
  -15.7037   16.5327   27.0258 H   0  0  0  0  0  0  0  0  0  0  0  0
  -17.0217   16.1823   28.1442 H   0  0  0  0  0  0  0  0  0  0  0  0
  -17.1659   16.0715   25.1982 H   0  0  0  0  0  0  0  0  0  0  0  0
  -19.3400   16.0679   25.3988 H   0  0  0  0  0  0  0  0  0  0  0  0
  -19.1694   16.2012   27.1402 H   0  0  0  0  0  0  0  0  0  0  0  0
  -19.9434    9.9418   25.8381 H   0  0  0  0  0  0  0  0  0  0  0  0
  -18.4291    9.8076   23.9011 H   0  0  0  0  0  0  0  0  0  0  0  0
  -17.1636   11.7994   23.1240 H   0  0  0  0  0  0  0  0  0  0  0  0
  -17.5033   13.9907   24.2694 H   0  0  0  0  0  0  0  0  0  0  0  0
  1 13  1  0  0  0  0
  1 14  1  0  0  0  0
  1 15  1  0  0  0  0
  1  2  1  0  0  0  0
  2 16  1  0  0  0  0
  2  3  1  0  0  0  0
  3 17  1  0  0  0  0
  3 18  1  0  0  0  0
  4  5  2  0  0  0  0
  3  5  1  0  0  0  0
  4  6  1  0  0  0  0
  6  7  2  0  0  0  0
  5  8  1  0  0  0  0
  7  8  1  0  0  0  0
  8 12  1  0  0  0  0
  7  9  1  0  0  0  0
  9 19  1  0  0  0  0
  9 10  2  0  0  0  0
 10 20  1  0  0  0  0
 10 11  1  0  0  0  0
 11 21  1  0  0  0  0
 11 12  2  0  0  0  0
 12 22  1  0  0  0  0
M  END
$$$$
