[23]F710
  PyMOL2.3          3D                             0

 30 31  0  0  0  0  0  0  0  0999 V2000
  -16.5379   12.8964   23.5325 C   0  0  0  0  0  0  0  0  0  0  0  0
  -16.0114   14.1490   23.2516 N   0  0  0  0  0  0  0  0  0  0  0  0
  -15.8435   11.8829   23.4064 O   0  0  0  0  0  0  0  0  0  0  0  0
  -18.4595   11.7697   24.7181 C   0  0  0  0  0  0  0  0  0  0  0  0
  -17.8644   12.8914   24.0000 N   0  0  0  0  0  0  0  0  0  0  0  0
  -18.2601   11.9403   26.2258 C   0  0  0  0  0  0  0  0  0  0  0  0
  -18.3790   13.3610   26.6466 N   0  0  0  0  0  0  0  0  0  0  0  0
  -19.1713   14.1816   25.7071 C   0  0  0  0  0  0  0  0  0  0  0  0
  -18.5018   14.1736   24.3182 C   0  0  0  0  0  0  0  0  0  0  0  0
  -18.5764   13.5934   28.0295 C   0  0  0  0  0  0  0  0  0  0  0  0
  -17.9301   12.8362   29.0344 C   0  0  0  0  0  0  0  0  0  0  0  0
  -18.1367   13.0702   30.3981 C   0  0  0  0  0  0  0  0  0  0  0  0
  -18.9896   14.0853   30.7942 C   0  0  0  0  0  0  0  0  0  0  0  0
  -19.6121   14.8865   29.8510 C   0  0  0  0  0  0  0  0  0  0  0  0
  -19.3895   14.6538   28.4881 C   0  0  0  0  0  0  0  0  0  0  0  0
  -19.2014   14.3032   32.0995 F   0  0  0  0  0  0  0  0  0  0  0  0
  -15.1166   14.1283   22.7673 H   0  0  0  0  0  0  0  0  0  0  0  0
  -16.6112   14.8065   22.7632 H   0  0  0  0  0  0  0  0  0  0  0  0
  -19.5300   11.7640   24.4744 H   0  0  0  0  0  0  0  0  0  0  0  0
  -18.0731   10.8033   24.3865 H   0  0  0  0  0  0  0  0  0  0  0  0
  -17.2643   11.5771   26.5069 H   0  0  0  0  0  0  0  0  0  0  0  0
  -19.0172   11.3091   26.7054 H   0  0  0  0  0  0  0  0  0  0  0  0
  -19.2671   15.2297   26.0041 H   0  0  0  0  0  0  0  0  0  0  0  0
  -20.1903   13.7786   25.6450 H   0  0  0  0  0  0  0  0  0  0  0  0
  -17.7698   14.9857   24.2572 H   0  0  0  0  0  0  0  0  0  0  0  0
  -19.2585   14.3612   23.5480 H   0  0  0  0  0  0  0  0  0  0  0  0
  -17.2296   12.0416   28.7908 H   0  0  0  0  0  0  0  0  0  0  0  0
  -17.6272   12.4591   31.1371 H   0  0  0  0  0  0  0  0  0  0  0  0
  -20.2659   15.6940   30.1663 H   0  0  0  0  0  0  0  0  0  0  0  0
  -19.8746   15.3346   27.7932 H   0  0  0  0  0  0  0  0  0  0  0  0
  1  2  1  0  0  0  0
  2 17  1  0  0  0  0
  2 18  1  0  0  0  0
  1  3  2  0  0  0  0
  4  5  1  0  0  0  0
  4 19  1  0  0  0  0
  4 20  1  0  0  0  0
  1  5  1  0  0  0  0
  4  6  1  0  0  0  0
  6 21  1  0  0  0  0
  6 22  1  0  0  0  0
  6  7  1  0  0  0  0
  7  8  1  0  0  0  0
  8 23  1  0  0  0  0
  8 24  1  0  0  0  0
  5  9  1  0  0  0  0
  8  9  1  0  0  0  0
  9 25  1  0  0  0  0
  9 26  1  0  0  0  0
  7 10  1  0  0  0  0
 10 11  1  0  0  0  0
 11 27  1  0  0  0  0
 11 12  2  0  0  0  0
 12 28  1  0  0  0  0
 12 13  1  0  0  0  0
 13 14  2  0  0  0  0
 14 29  1  0  0  0  0
 10 15  2  0  0  0  0
 14 15  1  0  0  0  0
 15 30  1  0  0  0  0
 13 16  1  0  0  0  0
M  END
$$$$
