[00]23247855
  PyMOL2.3          3D                             0

 19 19  0  0  0  0  0  0  0  0999 V2000
  -18.5085   11.0296   24.5870 C   0  0  0  0  0  0  0  0  0  0  0  0
  -18.7552   12.1729   25.4583 N   0  0  0  0  0  0  0  0  0  0  0  0
  -16.6292   10.7413   23.1192 O   0  0  0  0  0  0  0  0  0  0  0  0
  -17.8437   11.4627   23.2684 C   0  0  0  0  0  0  0  0  0  0  0  0
  -19.2081   11.9782   26.7060 N   0  0  0  0  0  0  0  0  0  0  0  0
  -18.5486   13.4996   25.1785 C   0  0  0  0  0  0  0  0  0  0  0  0
  -18.9073   14.1888   26.3225 C   0  0  0  0  0  0  0  0  0  0  0  0
  -19.3022   13.1857   27.2159 C   0  0  0  0  0  0  0  0  0  0  0  0
  -15.8678   11.1440   21.9908 C   0  0  0  0  0  0  0  0  0  0  0  0
  -18.8686   16.0679   26.6153 Br  0  0  0  0  0  0  0  0  0  0  0  0
  -17.8781   10.3202   25.1261 H   0  0  0  0  0  0  0  0  0  0  0  0
  -19.4593   10.5312   24.3909 H   0  0  0  0  0  0  0  0  0  0  0  0
  -17.6366   12.5349   23.2806 H   0  0  0  0  0  0  0  0  0  0  0  0
  -18.5070   11.2529   22.4266 H   0  0  0  0  0  0  0  0  0  0  0  0
  -18.1758   13.8231   24.2177 H   0  0  0  0  0  0  0  0  0  0  0  0
  -19.6504   13.3439   28.2260 H   0  0  0  0  0  0  0  0  0  0  0  0
  -14.9527   10.5541   21.9403 H   0  0  0  0  0  0  0  0  0  0  0  0
  -15.5835   12.1954   22.0561 H   0  0  0  0  0  0  0  0  0  0  0  0
  -16.4183   10.9869   21.0620 H   0  0  0  0  0  0  0  0  0  0  0  0
  1  4  1  0  0  0  0
  1 11  1  0  0  0  0
  1 12  1  0  0  0  0
  1  2  1  0  0  0  0
  2  5  4  0  0  0  0
  2  6  4  0  0  0  0
  3  4  1  0  0  0  0
  3  9  1  0  0  0  0
  4 13  1  0  0  0  0
  4 14  1  0  0  0  0
  5  8  4  0  0  0  0
  6  7  4  0  0  0  0
  6 15  1  0  0  0  0
  7  8  4  0  0  0  0
  8 16  1  0  0  0  0
  9 17  1  0  0  0  0
  9 18  1  0  0  0  0
  9 19  1  0  0  0  0
  7 10  1  0  0  0  0
M  END
$$$$
