[81]F709
  PyMOL2.3          3D                             0

 29 30  0  0  0  0  0  0  0  0999 V2000
  -18.3076   11.2976   24.2719 C   0  0  0  0  0  0  0  0  0  0  0  0
  -18.4215   10.0008   24.7402 N   0  0  0  0  0  0  0  0  0  0  0  0
  -17.9683   11.5448   23.1123 O   0  0  0  0  0  0  0  0  0  0  0  0
  -19.1410   11.8943   26.5089 C   0  0  0  0  0  0  0  0  0  0  0  0
  -18.5971   12.2827   25.2170 N   0  0  0  0  0  0  0  0  0  0  0  0
  -17.1515   15.7649   28.3624 O   0  0  0  0  0  0  0  0  0  0  0  0
  -18.4062   12.6353   27.6147 C   0  0  0  0  0  0  0  0  0  0  0  0
  -18.4793   14.0900   27.4194 N   0  0  0  0  0  0  0  0  0  0  0  0
  -19.6411   13.7298   29.7953 O   0  0  0  0  0  0  0  0  0  0  0  0
  -18.0783   14.5384   26.0776 C   0  0  0  0  0  0  0  0  0  0  0  0
  -18.6591   13.7163   24.9280 C   0  0  0  0  0  0  0  0  0  0  0  0
  -18.0405   14.9204   28.4829 C   0  0  0  0  0  0  0  0  0  0  0  0
  -18.6905   14.7074   29.7490 C   0  0  0  0  0  0  0  0  0  0  0  0
  -18.5157   15.2544   31.0032 C   0  0  0  0  0  0  0  0  0  0  0  0
  -19.4021   14.5603   31.8670 C   0  0  0  0  0  0  0  0  0  0  0  0
  -20.0733   13.6555   31.0793 C   0  0  0  0  0  0  0  0  0  0  0  0
  -19.3295    9.5676   24.5920 H   0  0  0  0  0  0  0  0  0  0  0  0
  -18.0995    9.8331   25.6896 H   0  0  0  0  0  0  0  0  0  0  0  0
  -20.2051   12.1564   26.5079 H   0  0  0  0  0  0  0  0  0  0  0  0
  -19.0675   10.8112   26.6497 H   0  0  0  0  0  0  0  0  0  0  0  0
  -17.3466   12.3561   27.6313 H   0  0  0  0  0  0  0  0  0  0  0  0
  -18.8276   12.3650   28.5857 H   0  0  0  0  0  0  0  0  0  0  0  0
  -16.9837   14.4858   26.0401 H   0  0  0  0  0  0  0  0  0  0  0  0
  -18.3605   15.5907   25.9664 H   0  0  0  0  0  0  0  0  0  0  0  0
  -18.1254   13.9461   23.9982 H   0  0  0  0  0  0  0  0  0  0  0  0
  -19.7157   13.9690   24.7767 H   0  0  0  0  0  0  0  0  0  0  0  0
  -17.8223   16.0362   31.2768 H   0  0  0  0  0  0  0  0  0  0  0  0
  -19.5313   14.6963   32.9318 H   0  0  0  0  0  0  0  0  0  0  0  0
  -20.8409   12.9206   31.2700 H   0  0  0  0  0  0  0  0  0  0  0  0
  1  2  1  0  0  0  0
  2 17  1  0  0  0  0
  2 18  1  0  0  0  0
  1  3  2  0  0  0  0
  4  5  1  0  0  0  0
  4 19  1  0  0  0  0
  4 20  1  0  0  0  0
  1  5  1  0  0  0  0
  6 12  2  0  0  0  0
  4  7  1  0  0  0  0
  7 21  1  0  0  0  0
  7 22  1  0  0  0  0
  7  8  1  0  0  0  0
  9 13  1  0  0  0  0
  9 16  1  0  0  0  0
  8 10  1  0  0  0  0
 10 23  1  0  0  0  0
 10 24  1  0  0  0  0
  5 11  1  0  0  0  0
 10 11  1  0  0  0  0
 11 25  1  0  0  0  0
 11 26  1  0  0  0  0
  8 12  1  0  0  0  0
 12 13  1  0  0  0  0
 13 14  2  0  0  0  0
 14 27  1  0  0  0  0
 14 15  1  0  0  0  0
 15 28  1  0  0  0  0
 15 16  2  0  0  0  0
 16 29  1  0  0  0  0
M  END
$$$$
