[24]F529
  PyMOL2.3          3D                             0

 23 23  0  0  0  0  0  0  0  0999 V2000
  -17.3933   11.4548   23.2012 C   0  0  0  0  0  0  0  0  0  0  0  0
  -18.4418   11.3571   24.2084 N   0  0  0  0  0  0  0  0  0  0  0  0
  -21.8910   11.5031   27.0171 O   0  0  0  0  0  0  0  0  0  0  0  0
  -21.1108   11.3835   25.8014 S   0  0  0  0  0  0  0  0  0  0  0  0
  -18.6398   12.4628   25.0519 C   0  0  0  0  0  0  0  0  0  0  0  0
  -21.7591   11.4974   24.5083 O   0  0  0  0  0  0  0  0  0  0  0  0
  -17.7119   13.5215   25.0915 C   0  0  0  0  0  0  0  0  0  0  0  0
  -17.9023   14.6296   25.9201 C   0  0  0  0  0  0  0  0  0  0  0  0
  -19.0434   14.7207   26.7075 C   0  0  0  0  0  0  0  0  0  0  0  0
  -19.9977   13.7079   26.6641 C   0  0  0  0  0  0  0  0  0  0  0  0
  -19.7947   12.5851   25.8492 C   0  0  0  0  0  0  0  0  0  0  0  0
  -20.2497    9.8252   25.8418 C   0  0  0  0  0  0  0  0  0  0  0  0
  -17.8371   11.6739   22.2239 H   0  0  0  0  0  0  0  0  0  0  0  0
  -16.8732   10.4952   23.1258 H   0  0  0  0  0  0  0  0  0  0  0  0
  -16.6401   12.2183   23.4258 H   0  0  0  0  0  0  0  0  0  0  0  0
  -19.3285   11.0421   23.8199 H   0  0  0  0  0  0  0  0  0  0  0  0
  -16.8162   13.4947   24.4742 H   0  0  0  0  0  0  0  0  0  0  0  0
  -17.1609   15.4229   25.9423 H   0  0  0  0  0  0  0  0  0  0  0  0
  -19.1976   15.5865   27.3445 H   0  0  0  0  0  0  0  0  0  0  0  0
  -20.8971   13.8205   27.2627 H   0  0  0  0  0  0  0  0  0  0  0  0
  -20.6340    9.2323   26.6742 H   0  0  0  0  0  0  0  0  0  0  0  0
  -20.4326    9.2991   24.9020 H   0  0  0  0  0  0  0  0  0  0  0  0
  -19.1786    9.9902   25.9684 H   0  0  0  0  0  0  0  0  0  0  0  0
  1 13  1  0  0  0  0
  1 14  1  0  0  0  0
  1 15  1  0  0  0  0
  1  2  1  0  0  0  0
  2 16  1  0  0  0  0
  3  4  2  0  0  0  0
  4 11  1  0  0  0  0
  2  5  1  0  0  0  0
  4  6  2  0  0  0  0
  5  7  1  0  0  0  0
  7 17  1  0  0  0  0
  7  8  2  0  0  0  0
  8 18  1  0  0  0  0
  8  9  1  0  0  0  0
  9 19  1  0  0  0  0
  9 10  2  0  0  0  0
 10 20  1  0  0  0  0
  5 11  2  0  0  0  0
 10 11  1  0  0  0  0
  4 12  1  0  0  0  0
 12 21  1  0  0  0  0
 12 22  1  0  0  0  0
 12 23  1  0  0  0  0
M  END
$$$$
