[04]F179
  PyMOL2.3          3D                             0

 29 30  0  0  0  0  0  0  0  0999 V2000
  -15.8020   12.5418   22.2052 C   0  0  0  0  0  0  0  0  0  0  0  0
  -18.8952   12.1322   25.7692 N   0  0  0  0  0  0  0  0  0  0  0  0
  -16.9984   10.4597   22.3465 O   0  0  0  0  0  0  0  0  0  0  0  0
  -17.1460   11.8748   22.4786 C   0  0  0  0  0  0  0  0  0  0  0  0
  -18.2150   13.2911   25.6780 N   0  0  0  0  0  0  0  0  0  0  0  0
  -17.7078   12.2452   23.8081 C   0  0  0  0  0  0  0  0  0  0  0  0
  -18.5813   11.5012   24.6359 C   0  0  0  0  0  0  0  0  0  0  0  0
  -17.4934   13.4057   24.5225 C   0  0  0  0  0  0  0  0  0  0  0  0
  -18.3218   14.2627   26.7514 C   0  0  0  0  0  0  0  0  0  0  0  0
  -17.7777   13.7421   28.0924 C   0  0  0  0  0  0  0  0  0  0  0  0
  -18.9977   13.5999   28.9923 C   0  0  0  0  0  0  0  0  0  0  0  0
  -19.9020   14.7320   28.5367 C   0  0  0  0  0  0  0  0  0  0  0  0
  -19.7676   14.7136   27.0200 C   0  0  0  0  0  0  0  0  0  0  0  0
  -15.8931   13.6337   22.2300 H   0  0  0  0  0  0  0  0  0  0  0  0
  -15.0435   12.2425   22.9371 H   0  0  0  0  0  0  0  0  0  0  0  0
  -15.4353   12.2646   21.2108 H   0  0  0  0  0  0  0  0  0  0  0  0
  -17.8482   12.1831   21.6946 H   0  0  0  0  0  0  0  0  0  0  0  0
  -16.2621   10.1794   22.9175 H   0  0  0  0  0  0  0  0  0  0  0  0
  -19.0014   10.5216   24.4557 H   0  0  0  0  0  0  0  0  0  0  0  0
  -16.8976   14.2815   24.3044 H   0  0  0  0  0  0  0  0  0  0  0  0
  -17.7243   15.1325   26.4478 H   0  0  0  0  0  0  0  0  0  0  0  0
  -17.1027   14.4938   28.5215 H   0  0  0  0  0  0  0  0  0  0  0  0
  -17.2154   12.8063   28.0135 H   0  0  0  0  0  0  0  0  0  0  0  0
  -18.7378   13.6774   30.0519 H   0  0  0  0  0  0  0  0  0  0  0  0
  -19.4834   12.6308   28.8288 H   0  0  0  0  0  0  0  0  0  0  0  0
  -19.5392   15.6867   28.9351 H   0  0  0  0  0  0  0  0  0  0  0  0
  -20.9377   14.5979   28.8630 H   0  0  0  0  0  0  0  0  0  0  0  0
  -20.5025   14.0231   26.5899 H   0  0  0  0  0  0  0  0  0  0  0  0
  -19.9671   15.7023   26.5929 H   0  0  0  0  0  0  0  0  0  0  0  0
  1 14  1  0  0  0  0
  1 15  1  0  0  0  0
  1 16  1  0  0  0  0
  2  7  2  0  0  0  0
  3  4  1  0  0  0  0
  3 18  1  0  0  0  0
  1  4  1  0  0  0  0
  4 17  1  0  0  0  0
  2  5  1  0  0  0  0
  4  6  1  0  0  0  0
  6  7  1  0  0  0  0
  7 19  1  0  0  0  0
  5  8  1  0  0  0  0
  6  8  2  0  0  0  0
  8 20  1  0  0  0  0
  5  9  1  0  0  0  0
  9 21  1  0  0  0  0
  9 10  1  0  0  0  0
 10 22  1  0  0  0  0
 10 23  1  0  0  0  0
 10 11  1  0  0  0  0
 11 24  1  0  0  0  0
 11 25  1  0  0  0  0
 11 12  1  0  0  0  0
 12 26  1  0  0  0  0
 12 27  1  0  0  0  0
  9 13  1  0  0  0  0
 12 13  1  0  0  0  0
 13 28  1  0  0  0  0
 13 29  1  0  0  0  0
M  END
$$$$
