[85]F393
  PyMOL2.3          3D                             0

 24 24  0  0  0  0  0  0  0  0999 V2000
  -15.5552   12.3235   21.6668 C   0  0  0  0  0  0  0  0  0  0  0  0
  -18.5295   12.2567   25.2922 N   0  0  0  0  0  0  0  0  0  0  0  0
  -17.2726   12.1715   23.3454 O   0  0  0  0  0  0  0  0  0  0  0  0
  -16.5909   11.4197   22.3206 C   0  0  0  0  0  0  0  0  0  0  0  0
  -18.1389   10.2400   24.1874 O   0  0  0  0  0  0  0  0  0  0  0  0
  -18.0079   11.4599   24.2584 C   0  0  0  0  0  0  0  0  0  0  0  0
  -20.2107   13.6807   26.9753 O   0  0  0  0  0  0  0  0  0  0  0  0
  -18.3706   13.7116   25.3034 C   0  0  0  0  0  0  0  0  0  0  0  0
  -19.2907   14.4886   26.2507 C   0  0  0  0  0  0  0  0  0  0  0  0
  -19.5355   12.5667   27.5449 C   0  0  0  0  0  0  0  0  0  0  0  0
  -19.2133   11.6109   26.4140 C   0  0  0  0  0  0  0  0  0  0  0  0
  -14.5415   11.9905   21.9131 H   0  0  0  0  0  0  0  0  0  0  0  0
  -15.6554   12.3064   20.5764 H   0  0  0  0  0  0  0  0  0  0  0  0
  -15.6543   13.3639   21.9936 H   0  0  0  0  0  0  0  0  0  0  0  0
  -16.1009   10.5314   22.7347 H   0  0  0  0  0  0  0  0  0  0  0  0
  -17.3292   11.0919   21.5806 H   0  0  0  0  0  0  0  0  0  0  0  0
  -18.4988   14.0925   24.2844 H   0  0  0  0  0  0  0  0  0  0  0  0
  -17.3250   13.9190   25.5657 H   0  0  0  0  0  0  0  0  0  0  0  0
  -18.6876   15.0489   26.9753 H   0  0  0  0  0  0  0  0  0  0  0  0
  -19.8677   15.2313   25.6904 H   0  0  0  0  0  0  0  0  0  0  0  0
  -18.6387   12.9072   28.0775 H   0  0  0  0  0  0  0  0  0  0  0  0
  -20.1971   12.0913   28.2769 H   0  0  0  0  0  0  0  0  0  0  0  0
  -20.1446   11.2097   25.9986 H   0  0  0  0  0  0  0  0  0  0  0  0
  -18.6169   10.7675   26.7787 H   0  0  0  0  0  0  0  0  0  0  0  0
  1 12  1  0  0  0  0
  1 13  1  0  0  0  0
  1 14  1  0  0  0  0
  2  6  1  0  0  0  0
  3  4  1  0  0  0  0
  1  4  1  0  0  0  0
  4 15  1  0  0  0  0
  4 16  1  0  0  0  0
  5  6  2  0  0  0  0
  3  6  1  0  0  0  0
  7  9  1  0  0  0  0
  2  8  1  0  0  0  0
  8 17  1  0  0  0  0
  8 18  1  0  0  0  0
  8  9  1  0  0  0  0
  9 19  1  0  0  0  0
  9 20  1  0  0  0  0
  7 10  1  0  0  0  0
 10 21  1  0  0  0  0
 10 22  1  0  0  0  0
  2 11  1  0  0  0  0
 10 11  1  0  0  0  0
 11 23  1  0  0  0  0
 11 24  1  0  0  0  0
M  END
$$$$
