[76]F374
  PyMOL2.3          3D                             0

 18 18  0  0  0  0  0  0  0  0999 V2000
  -17.7372   11.2462   23.3543 C   0  0  0  0  0  0  0  0  0  0  0  0
  -19.1529   11.9780   25.2153 N   0  0  0  0  0  0  0  0  0  0  0  0
  -19.0812   13.8913   26.5301 O   0  0  0  0  0  0  0  0  0  0  0  0
  -18.2130   12.4147   24.1953 C   0  0  0  0  0  0  0  0  0  0  0  0
  -22.6464   12.2203   27.9700 N   0  0  0  0  0  0  0  0  0  0  0  0
  -19.6243   12.8451   26.1903 C   0  0  0  0  0  0  0  0  0  0  0  0
  -22.6179   11.1651   27.1403 N   0  0  0  0  0  0  0  0  0  0  0  0
  -20.8520   12.4015   26.7989 C   0  0  0  0  0  0  0  0  0  0  0  0
  -21.5168   11.2702   26.4052 N   0  0  0  0  0  0  0  0  0  0  0  0
  -21.5500   13.0136   27.8143 C   0  0  0  0  0  0  0  0  0  0  0  0
  -18.5002   10.9500   22.6276 H   0  0  0  0  0  0  0  0  0  0  0  0
  -17.4962   10.3796   23.9780 H   0  0  0  0  0  0  0  0  0  0  0  0
  -16.8335   11.5184   22.8006 H   0  0  0  0  0  0  0  0  0  0  0  0
  -17.3642   12.9155   24.6717 H   0  0  0  0  0  0  0  0  0  0  0  0
  -18.7195   13.1556   23.5685 H   0  0  0  0  0  0  0  0  0  0  0  0
  -19.6199   11.0859   25.0729 H   0  0  0  0  0  0  0  0  0  0  0  0
  -21.3913   13.9052   28.4042 H   0  0  0  0  0  0  0  0  0  0  0  0
  -23.4351   12.3344   28.5954 H   0  0  0  0  0  0  0  0  0  0  0  0
  1 11  1  0  0  0  0
  1 12  1  0  0  0  0
  1 13  1  0  0  0  0
  2  4  1  0  0  0  0
  2 16  1  0  0  0  0
  3  6  2  0  0  0  0
  1  4  1  0  0  0  0
  4 14  1  0  0  0  0
  4 15  1  0  0  0  0
  5 10  1  0  0  0  0
  5 18  1  0  0  0  0
  2  6  1  0  0  0  0
  5  7  1  0  0  0  0
  6  8  1  0  0  0  0
  7  9  2  0  0  0  0
  8  9  1  0  0  0  0
  8 10  2  0  0  0  0
 10 17  1  0  0  0  0
M  END
$$$$
