F616_20
     RDKit          3D

 26 26  0  0  0  0  0  0  0  0999 V2000
  -15.0506   17.9166   26.7558 S   0  0  0  0  0  0  0  0  0  0  0  0
  -14.0019   17.5001   25.8504 O   0  0  0  0  0  0  0  0  0  0  0  0
  -15.0157   17.5830   28.1639 O   0  0  0  0  0  0  0  0  0  0  0  0
  -16.5330   17.3762   26.1660 N   0  0  0  0  0  0  0  0  0  0  0  0
  -16.8423   17.8301   25.3028 H   0  0  0  0  0  0  0  0  0  0  0  0
  -16.9204   15.9644   26.3484 C   0  0  0  0  0  0  0  0  0  0  0  0
  -16.3903   15.3702   25.5959 H   0  0  0  0  0  0  0  0  0  0  0  0
  -16.6286   15.6023   27.3403 H   0  0  0  0  0  0  0  0  0  0  0  0
  -18.4279   15.7965   26.1440 C   0  0  0  0  0  0  0  0  0  0  0  0
  -18.9784   16.1624   27.0205 H   0  0  0  0  0  0  0  0  0  0  0  0
  -18.7478   16.4278   25.3052 H   0  0  0  0  0  0  0  0  0  0  0  0
  -18.8307   14.3673   25.8531 C   0  0  0  0  0  0  0  0  0  0  0  0
  -19.2505   13.5313   26.8946 C   0  0  0  0  0  0  0  0  0  0  0  0
  -19.2749   13.8912   27.8902 H   0  0  0  0  0  0  0  0  0  0  0  0
  -19.6382   12.2203   26.6285 C   0  0  0  0  0  0  0  0  0  0  0  0
  -19.9574   11.5782   27.4082 H   0  0  0  0  0  0  0  0  0  0  0  0
  -19.6022   11.7647   25.3185 C   0  0  0  0  0  0  0  0  0  0  0  0
  -19.9752   10.5029   25.0608 F   0  0  0  0  0  0  0  0  0  0  0  0
  -19.1954   12.5734   24.2672 C   0  0  0  0  0  0  0  0  0  0  0  0
  -19.1854   12.1982   23.2776 H   0  0  0  0  0  0  0  0  0  0  0  0
  -18.8073   13.8827   24.5414 C   0  0  0  0  0  0  0  0  0  0  0  0
  -18.5019   14.5147   23.7461 H   0  0  0  0  0  0  0  0  0  0  0  0
  -15.2340   19.6820   26.6236 C   0  0  0  0  0  0  0  0  0  0  0  0
  -15.3300   19.9571   25.5718 H   0  0  0  0  0  0  0  0  0  0  0  0
  -14.3381   20.1448   27.0433 H   0  0  0  0  0  0  0  0  0  0  0  0
  -16.1115   19.9910   27.1939 H   0  0  0  0  0  0  0  0  0  0  0  0
  1  2  2  0
  1  3  2  0
  1  4  1  0
  1 23  1  0
  4  5  1  0
  4  6  1  0
  6  7  1  0
  6  8  1  0
  6  9  1  0
  9 10  1  0
  9 11  1  0
  9 12  1  0
 12 13  1  0
 12 21  2  0
 13 14  1  0
 13 15  2  0
 15 16  1  0
 15 17  1  0
 17 18  1  0
 17 19  2  0
 19 20  1  0
 19 21  1  0
 21 22  1  0
 23 24  1  0
 23 25  1  0
 23 26  1  0
M  END
$$$$
