F618_57
     RDKit          3D

 26 26  0  0  0  0  0  0  0  0999 V2000
  -24.9330   15.4471   33.0538 F   0  0  0  0  0  0  0  0  0  0  0  0
  -24.4862   14.9648   31.8837 C   0  0  0  0  0  0  0  0  0  0  0  0
  -23.6273   13.8528   31.8116 C   0  0  0  0  0  0  0  0  0  0  0  0
  -23.2079   13.1611   32.9593 N   0  0  0  0  0  0  0  0  0  0  0  0
  -23.5007   11.7101   33.0326 C   0  0  0  0  0  0  0  0  0  0  0  0
  -22.3364   10.8795   32.4616 C   0  0  0  0  0  0  0  0  0  0  0  0
  -22.4552    9.8229   32.7250 H   0  0  0  0  0  0  0  0  0  0  0  0
  -21.3722   11.2116   32.8589 H   0  0  0  0  0  0  0  0  0  0  0  0
  -22.2715   10.9703   31.0399 O   0  0  0  0  0  0  0  0  0  0  0  0
  -22.2880   11.9255   30.8498 H   0  0  0  0  0  0  0  0  0  0  0  0
  -24.8275   11.3465   32.3548 C   0  0  0  0  0  0  0  0  0  0  0  0
  -25.0981   10.3109   32.5903 H   0  0  0  0  0  0  0  0  0  0  0  0
  -24.7784   11.4212   31.2645 H   0  0  0  0  0  0  0  0  0  0  0  0
  -25.6381   11.9916   32.7075 H   0  0  0  0  0  0  0  0  0  0  0  0
  -22.5038   13.8512   34.0303 C   0  0  0  0  0  0  0  0  0  0  0  0
  -21.4653   14.0501   33.7461 H   0  0  0  0  0  0  0  0  0  0  0  0
  -22.4859   13.2724   34.9585 H   0  0  0  0  0  0  0  0  0  0  0  0
  -23.0012   14.7934   34.2900 H   0  0  0  0  0  0  0  0  0  0  0  0
  -23.1785   13.3939   30.6332 N   0  0  0  0  0  0  0  0  0  0  0  0
  -23.5519   14.0266   29.5138 C   0  0  0  0  0  0  0  0  0  0  0  0
  -23.1840   13.6540   28.5924 H   0  0  0  0  0  0  0  0  0  0  0  0
  -24.3943   15.1400   29.5260 C   0  0  0  0  0  0  0  0  0  0  0  0
  -24.6635   15.6095   28.6160 H   0  0  0  0  0  0  0  0  0  0  0  0
  -24.8795   15.6276   30.7367 C   0  0  0  0  0  0  0  0  0  0  0  0
  -25.5226   16.4677   30.7849 H   0  0  0  0  0  0  0  0  0  0  0  0
  -23.6397   11.4167   34.0819 H   0  0  0  0  0  0  0  0  0  0  0  0
  1  2  1  0
  2  3  1  0
  2 24  2  0
  3  4  1  0
  3 19  2  0
  4  5  1  0
  4 15  1  0
  5  6  1  0
  5 11  1  0
  5 26  1  0
  6  7  1  0
  6  8  1  0
  6  9  1  0
  9 10  1  0
 11 12  1  0
 11 13  1  0
 11 14  1  0
 15 16  1  0
 15 17  1  0
 15 18  1  0
 19 20  1  0
 20 21  1  0
 20 22  2  0
 22 23  1  0
 22 24  1  0
 24 25  1  0
M  END
$$$$
