F368_28
     RDKit          3D

 29 30  0  0  0  0  0  0  0  0999 V2000
  -20.7962   12.3075   29.0097 O   0  0  0  0  0  0  0  0  0  0  0  0
  -20.9352   12.2856   27.8012 C   0  0  0  0  0  0  0  0  0  0  0  0
  -22.1714   12.4251   27.2314 N   0  0  0  0  0  0  0  0  0  0  0  0
  -22.1883   12.3812   26.2059 H   0  0  0  0  0  0  0  0  0  0  0  0
  -23.3891   12.6121   27.8726 C   0  0  0  0  0  0  0  0  0  0  0  0
  -23.6198   12.6754   29.2003 C   0  0  0  0  0  0  0  0  0  0  0  0
  -22.9739   12.6054   30.0341 H   0  0  0  0  0  0  0  0  0  0  0  0
  -24.9581   12.8657   29.3120 N   0  0  0  0  0  0  0  0  0  0  0  0
  -25.7336   12.9973   30.5262 C   0  0  0  0  0  0  0  0  0  0  0  0
  -26.7792   12.7835   30.2767 H   0  0  0  0  0  0  0  0  0  0  0  0
  -25.3920   12.2271   31.2261 H   0  0  0  0  0  0  0  0  0  0  0  0
  -25.5976   14.3756   31.1477 C   0  0  0  0  0  0  0  0  0  0  0  0
  -26.1893   14.4387   32.0659 H   0  0  0  0  0  0  0  0  0  0  0  0
  -24.5540   14.5932   31.3969 H   0  0  0  0  0  0  0  0  0  0  0  0
  -25.9468   15.1545   30.4619 H   0  0  0  0  0  0  0  0  0  0  0  0
  -25.5734   12.9285   28.0939 N   0  0  0  0  0  0  0  0  0  0  0  0
  -24.6094   12.7715   27.2242 C   0  0  0  0  0  0  0  0  0  0  0  0
  -24.7628   12.7695   26.1762 H   0  0  0  0  0  0  0  0  0  0  0  0
  -19.7782   12.0972   26.7754 C   0  0  0  0  0  0  0  0  0  0  0  0
  -19.7222   11.0665   26.3931 H   0  0  0  0  0  0  0  0  0  0  0  0
  -19.6926   13.1193   25.6085 C   0  0  0  0  0  0  0  0  0  0  0  0
  -20.1041   14.1078   25.8397 H   0  0  0  0  0  0  0  0  0  0  0  0
  -20.1019   12.7801   24.6526 H   0  0  0  0  0  0  0  0  0  0  0  0
  -18.1597   13.0409   25.7352 C   0  0  0  0  0  0  0  0  0  0  0  0
  -17.6216   13.9811   25.5927 H   0  0  0  0  0  0  0  0  0  0  0  0
  -17.7049   12.2679   25.1054 H   0  0  0  0  0  0  0  0  0  0  0  0
  -18.3704   12.6025   27.1969 C   0  0  0  0  0  0  0  0  0  0  0  0
  -18.3825   13.4360   27.9093 H   0  0  0  0  0  0  0  0  0  0  0  0
  -17.6818   11.8357   27.5607 H   0  0  0  0  0  0  0  0  0  0  0  0
  1  2  2  0
  2  3  1  0
  2 19  1  0
  3  4  1  0
  3  5  1  0
  5  6  2  0
  5 17  1  0
  6  7  1  0
  6  8  1  0
  8  9  1  0
  8 16  1  0
  9 10  1  0
  9 11  1  0
  9 12  1  0
 12 13  1  0
 12 14  1  0
 12 15  1  0
 16 17  2  0
 17 18  1  0
 19 20  1  0
 19 21  1  0
 19 27  1  0
 21 22  1  0
 21 23  1  0
 21 24  1  0
 24 25  1  0
 24 26  1  0
 24 27  1  0
 27 28  1  0
 27 29  1  0
M  END
$$$$
