F501_77
     RDKit          3D

 23 24  0  0  0  0  0  0  0  0999 V2000
  -25.2022   14.6159   28.0767 C   0  0  0  0  0  0  0  0  0  0  0  0
  -25.9529   13.8223   28.1180 H   0  0  0  0  0  0  0  0  0  0  0  0
  -24.4116   14.3480   27.3720 H   0  0  0  0  0  0  0  0  0  0  0  0
  -25.6799   15.5510   27.7751 H   0  0  0  0  0  0  0  0  0  0  0  0
  -24.6098   14.7941   29.3742 N   0  0  0  0  0  0  0  0  0  0  0  0
  -23.9082   15.9060   29.6392 N   0  0  0  0  0  0  0  0  0  0  0  0
  -23.4665   15.8176   30.8714 N   0  0  0  0  0  0  0  0  0  0  0  0
  -23.9067   14.6425   31.3664 C   0  0  0  0  0  0  0  0  0  0  0  0
  -24.6332   13.9945   30.4418 C   0  0  0  0  0  0  0  0  0  0  0  0
  -25.3111   12.6819   30.6048 C   0  0  0  0  0  0  0  0  0  0  0  0
  -26.3878   12.8667   30.7119 H   0  0  0  0  0  0  0  0  0  0  0  0
  -25.1824   12.0680   29.7081 H   0  0  0  0  0  0  0  0  0  0  0  0
  -24.8027   11.9734   31.8842 C   0  0  0  0  0  0  0  0  0  0  0  0
  -23.5794   11.1042   31.5757 C   0  0  0  0  0  0  0  0  0  0  0  0
  -23.6398    9.8984   31.9039 O   0  0  0  0  0  0  0  0  0  0  0  0
  -22.5858   11.6572   31.0572 O   0  0  0  0  0  0  0  0  0  0  0  0
  -24.5904   12.9639   33.0585 C   0  0  0  0  0  0  0  0  0  0  0  0
  -25.5679   13.3908   33.3225 H   0  0  0  0  0  0  0  0  0  0  0  0
  -24.2312   12.4413   33.9529 H   0  0  0  0  0  0  0  0  0  0  0  0
  -23.6237   14.1213   32.7215 C   0  0  0  0  0  0  0  0  0  0  0  0
  -22.5858   13.7718   32.7626 H   0  0  0  0  0  0  0  0  0  0  0  0
  -23.7295   14.9169   33.4679 H   0  0  0  0  0  0  0  0  0  0  0  0
  -25.5751   11.2557   32.1931 H   0  0  0  0  0  0  0  0  0  0  0  0
  1  2  1  0
  1  3  1  0
  1  4  1  0
  1  5  1  0
  5  6  1  0
  5  9  1  0
  6  7  2  0
  7  8  1  0
  8  9  2  0
  8 20  1  0
  9 10  1  0
 10 11  1  0
 10 12  1  0
 10 13  1  0
 13 14  1  0
 13 17  1  0
 13 23  1  0
 14 15  1  0
 14 16  2  0
 17 18  1  0
 17 19  1  0
 17 20  1  0
 20 21  1  0
 20 22  1  0
M  END
$$$$
