F579_35
     RDKit          3D

 29 31  0  0  0  0  0  0  0  0999 V2000
  -25.3751   13.1772   27.9669 O   0  0  0  0  0  0  0  0  0  0  0  0
  -25.0008   13.0633   29.1126 C   0  0  0  0  0  0  0  0  0  0  0  0
  -23.6949   12.8315   29.4205 N   0  0  0  0  0  0  0  0  0  0  0  0
  -23.4716   12.7267   30.4137 H   0  0  0  0  0  0  0  0  0  0  0  0
  -22.6030   12.7058   28.5939 C   0  0  0  0  0  0  0  0  0  0  0  0
  -22.7300   12.8790   26.8701 S   0  0  0  0  0  0  0  0  0  0  0  0
  -21.0280   12.5893   26.7691 C   0  0  0  0  0  0  0  0  0  0  0  0
  -20.5127   12.3871   28.0487 C   0  0  0  0  0  0  0  0  0  0  0  0
  -21.4313   12.4578   29.0887 N   0  0  0  0  0  0  0  0  0  0  0  0
  -19.1387   12.1343   28.1952 C   0  0  0  0  0  0  0  0  0  0  0  0
  -18.7420   11.9791   29.1641 H   0  0  0  0  0  0  0  0  0  0  0  0
  -18.3182   12.0888   27.0772 C   0  0  0  0  0  0  0  0  0  0  0  0
  -17.2832   11.8985   27.1919 H   0  0  0  0  0  0  0  0  0  0  0  0
  -18.8681   12.2987   25.7926 C   0  0  0  0  0  0  0  0  0  0  0  0
  -18.1575   12.2792   24.6182 O   0  0  0  0  0  0  0  0  0  0  0  0
  -17.8957   13.5302   23.9929 C   0  0  0  0  0  0  0  0  0  0  0  0
  -17.2807   14.1706   24.6341 H   0  0  0  0  0  0  0  0  0  0  0  0
  -17.3286   13.3344   23.0779 H   0  0  0  0  0  0  0  0  0  0  0  0
  -18.8263   14.0312   23.7065 H   0  0  0  0  0  0  0  0  0  0  0  0
  -20.2178   12.5492   25.6264 C   0  0  0  0  0  0  0  0  0  0  0  0
  -20.6276   12.7044   24.6626 H   0  0  0  0  0  0  0  0  0  0  0  0
  -25.9233   13.1852   30.2626 C   0  0  0  0  0  0  0  0  0  0  0  0
  -26.0486   12.2594   30.8176 H   0  0  0  0  0  0  0  0  0  0  0  0
  -27.1001   14.1311   30.2202 C   0  0  0  0  0  0  0  0  0  0  0  0
  -27.2513   14.7541   29.3457 H   0  0  0  0  0  0  0  0  0  0  0  0
  -28.0171   13.8202   30.7058 H   0  0  0  0  0  0  0  0  0  0  0  0
  -25.9204   14.4466   31.0916 C   0  0  0  0  0  0  0  0  0  0  0  0
  -26.0365   14.3467   32.1640 H   0  0  0  0  0  0  0  0  0  0  0  0
  -25.2674   15.2592   30.7908 H   0  0  0  0  0  0  0  0  0  0  0  0
  1  2  2  0
  2  3  1  0
  2 22  1  0
  3  4  1  0
  3  5  1  0
  5  6  1  0
  5  9  2  0
  6  7  1  0
  7  8  1  0
  7 20  2  0
  8  9  1  0
  8 10  2  0
 10 11  1  0
 10 12  1  0
 12 13  1  0
 12 14  2  0
 14 15  1  0
 14 20  1  0
 15 16  1  0
 16 17  1  0
 16 18  1  0
 16 19  1  0
 20 21  1  0
 22 23  1  0
 22 24  1  0
 22 27  1  0
 24 25  1  0
 24 26  1  0
 24 27  1  0
 27 28  1  0
 27 29  1  0
M  END
$$$$
