F529_45
     RDKit          3D

 23 23  0  0  0  0  0  0  0  0999 V2000
  -25.8437   13.9492   28.2056 S   0  0  0  0  0  0  0  0  0  0  0  0
  -26.7396   12.9055   28.6774 O   0  0  0  0  0  0  0  0  0  0  0  0
  -26.3537   15.0745   27.4456 O   0  0  0  0  0  0  0  0  0  0  0  0
  -24.5670   13.1693   27.2530 C   0  0  0  0  0  0  0  0  0  0  0  0
  -24.0985   12.3889   27.8562 H   0  0  0  0  0  0  0  0  0  0  0  0
  -23.8334   13.9195   26.9516 H   0  0  0  0  0  0  0  0  0  0  0  0
  -25.0272   12.7268   26.3676 H   0  0  0  0  0  0  0  0  0  0  0  0
  -24.9685   14.5987   29.6014 C   0  0  0  0  0  0  0  0  0  0  0  0
  -24.4572   15.9076   29.6384 C   0  0  0  0  0  0  0  0  0  0  0  0
  -24.6204   16.7424   28.5357 N   0  0  0  0  0  0  0  0  0  0  0  0
  -24.9582   16.3052   27.6661 H   0  0  0  0  0  0  0  0  0  0  0  0
  -24.3278   18.1549   28.5013 C   0  0  0  0  0  0  0  0  0  0  0  0
  -24.9094   18.6976   29.2540 H   0  0  0  0  0  0  0  0  0  0  0  0
  -24.5947   18.5590   27.5196 H   0  0  0  0  0  0  0  0  0  0  0  0
  -23.2611   18.3418   28.6583 H   0  0  0  0  0  0  0  0  0  0  0  0
  -23.8117   16.3785   30.7895 C   0  0  0  0  0  0  0  0  0  0  0  0
  -23.4500   17.3710   30.8361 H   0  0  0  0  0  0  0  0  0  0  0  0
  -23.6415   15.5407   31.8836 C   0  0  0  0  0  0  0  0  0  0  0  0
  -23.1455   15.8953   32.7507 H   0  0  0  0  0  0  0  0  0  0  0  0
  -24.1177   14.2344   31.8442 C   0  0  0  0  0  0  0  0  0  0  0  0
  -23.9796   13.5936   32.6785 H   0  0  0  0  0  0  0  0  0  0  0  0
  -24.7789   13.7708   30.7107 C   0  0  0  0  0  0  0  0  0  0  0  0
  -25.1441   12.7753   30.6892 H   0  0  0  0  0  0  0  0  0  0  0  0
  1  2  2  0
  1  3  2  0
  1  4  1  0
  1  8  1  0
  4  5  1  0
  4  6  1  0
  4  7  1  0
  8  9  1  0
  8 22  2  0
  9 10  1  0
  9 16  2  0
 10 11  1  0
 10 12  1  0
 12 13  1  0
 12 14  1  0
 12 15  1  0
 16 17  1  0
 16 18  1  0
 18 19  1  0
 18 20  2  0
 20 21  1  0
 20 22  1  0
 22 23  1  0
M  END
$$$$
