F366_18
     RDKit          3D

 22 22  0  0  0  0  0  0  0  0999 V2000
  -24.7012   12.0285   25.5015 O   0  0  0  0  0  0  0  0  0  0  0  0
  -25.3914   11.3921   25.2465 H   0  0  0  0  0  0  0  0  0  0  0  0
  -24.7949   12.2007   26.9129 C   0  0  0  0  0  0  0  0  0  0  0  0
  -25.6684   12.8230   27.1359 H   0  0  0  0  0  0  0  0  0  0  0  0
  -24.9431   11.2112   27.3570 H   0  0  0  0  0  0  0  0  0  0  0  0
  -23.5081   12.8220   27.4521 C   0  0  0  0  0  0  0  0  0  0  0  0
  -22.6697   12.5016   26.8215 H   0  0  0  0  0  0  0  0  0  0  0  0
  -23.5650   13.9164   27.3891 H   0  0  0  0  0  0  0  0  0  0  0  0
  -23.2250   12.4353   28.8697 C   0  0  0  0  0  0  0  0  0  0  0  0
  -24.1111   12.3555   29.8878 C   0  0  0  0  0  0  0  0  0  0  0  0
  -25.1522   12.5403   29.9296 H   0  0  0  0  0  0  0  0  0  0  0  0
  -23.4010   11.9652   30.9689 N   0  0  0  0  0  0  0  0  0  0  0  0
  -23.8834   11.7274   32.3121 C   0  0  0  0  0  0  0  0  0  0  0  0
  -24.3020   12.6671   32.6879 H   0  0  0  0  0  0  0  0  0  0  0  0
  -24.6976   10.9975   32.2488 H   0  0  0  0  0  0  0  0  0  0  0  0
  -22.7849   11.2316   33.2355 C   0  0  0  0  0  0  0  0  0  0  0  0
  -21.9686   11.9601   33.3040 H   0  0  0  0  0  0  0  0  0  0  0  0
  -22.3600   10.2886   32.8756 H   0  0  0  0  0  0  0  0  0  0  0  0
  -23.1805   11.0665   34.2424 H   0  0  0  0  0  0  0  0  0  0  0  0
  -22.0875   11.7969   30.6757 N   0  0  0  0  0  0  0  0  0  0  0  0
  -21.9898   12.0803   29.4051 C   0  0  0  0  0  0  0  0  0  0  0  0
  -21.0754   12.0439   28.8652 H   0  0  0  0  0  0  0  0  0  0  0  0
  1  2  1  0
  1  3  1  0
  3  4  1  0
  3  5  1  0
  3  6  1  0
  6  7  1  0
  6  8  1  0
  6  9  1  0
  9 10  2  0
  9 21  1  0
 10 11  1  0
 10 12  1  0
 12 13  1  0
 12 20  1  0
 13 14  1  0
 13 15  1  0
 13 16  1  0
 16 17  1  0
 16 18  1  0
 16 19  1  0
 20 21  2  0
 21 22  1  0
M  END
$$$$
