F421_61
     RDKit          3D

 19 19  0  0  0  0  0  0  0  0999 V2000
  -22.9316   14.8289   29.3998 O   0  0  0  0  0  0  0  0  0  0  0  0
  -23.5136   13.7628   29.2135 C   0  0  0  0  0  0  0  0  0  0  0  0
  -22.7434   12.7060   28.7318 N   0  0  0  0  0  0  0  0  0  0  0  0
  -21.4206   12.9647   28.1798 C   0  0  0  0  0  0  0  0  0  0  0  0
  -21.3363   12.4581   27.2129 H   0  0  0  0  0  0  0  0  0  0  0  0
  -20.6710   12.5641   28.8683 H   0  0  0  0  0  0  0  0  0  0  0  0
  -21.2330   14.0306   28.0296 H   0  0  0  0  0  0  0  0  0  0  0  0
  -23.1499   11.3072   28.7604 C   0  0  0  0  0  0  0  0  0  0  0  0
  -22.2944   10.6912   29.0560 H   0  0  0  0  0  0  0  0  0  0  0  0
  -23.4737   11.0168   27.7568 H   0  0  0  0  0  0  0  0  0  0  0  0
  -23.9526   11.1323   29.4795 H   0  0  0  0  0  0  0  0  0  0  0  0
  -24.9302   13.5962   29.4833 C   0  0  0  0  0  0  0  0  0  0  0  0
  -25.6072   14.2566   30.4648 C   0  0  0  0  0  0  0  0  0  0  0  0
  -25.2792   14.9511   31.1939 H   0  0  0  0  0  0  0  0  0  0  0  0
  -26.8881   13.8643   30.3615 N   0  0  0  0  0  0  0  0  0  0  0  0
  -27.6608   14.1903   30.9726 H   0  0  0  0  0  0  0  0  0  0  0  0
  -27.0718   12.9790   29.3443 N   0  0  0  0  0  0  0  0  0  0  0  0
  -25.8899   12.8314   28.8165 C   0  0  0  0  0  0  0  0  0  0  0  0
  -25.7069   12.2064   27.9781 H   0  0  0  0  0  0  0  0  0  0  0  0
  1  2  2  0
  2  3  1  0
  2 12  1  0
  3  4  1  0
  3  8  1  0
  4  5  1  0
  4  6  1  0
  4  7  1  0
  8  9  1  0
  8 10  1  0
  8 11  1  0
 12 13  2  0
 12 18  1  0
 13 14  1  0
 13 15  1  0
 15 16  1  0
 15 17  1  0
 17 18  2  0
 18 19  1  0
M  END
$$$$
