F618_43
     RDKit          3D

 26 26  0  0  0  0  0  0  0  0999 V2000
  -23.0911   12.3338   32.5662 F   0  0  0  0  0  0  0  0  0  0  0  0
  -23.4295   13.4997   31.9940 C   0  0  0  0  0  0  0  0  0  0  0  0
  -23.4229   13.6781   30.5984 C   0  0  0  0  0  0  0  0  0  0  0  0
  -23.0896   12.6374   29.7169 N   0  0  0  0  0  0  0  0  0  0  0  0
  -22.7227   13.0036   28.3285 C   0  0  0  0  0  0  0  0  0  0  0  0
  -23.9446   12.9312   27.3941 C   0  0  0  0  0  0  0  0  0  0  0  0
  -23.6325   13.0252   26.3484 H   0  0  0  0  0  0  0  0  0  0  0  0
  -24.6565   13.7368   27.5991 H   0  0  0  0  0  0  0  0  0  0  0  0
  -24.6414   11.6945   27.5321 O   0  0  0  0  0  0  0  0  0  0  0  0
  -24.0147   11.0185   27.2172 H   0  0  0  0  0  0  0  0  0  0  0  0
  -21.5602   12.1609   27.7894 C   0  0  0  0  0  0  0  0  0  0  0  0
  -21.1984   12.5813   26.8442 H   0  0  0  0  0  0  0  0  0  0  0  0
  -21.8488   11.1255   27.5860 H   0  0  0  0  0  0  0  0  0  0  0  0
  -20.7222   12.1524   28.4932 H   0  0  0  0  0  0  0  0  0  0  0  0
  -23.0987   11.2514   30.1620 C   0  0  0  0  0  0  0  0  0  0  0  0
  -22.2203   11.0369   30.7795 H   0  0  0  0  0  0  0  0  0  0  0  0
  -23.0942   10.5449   29.3267 H   0  0  0  0  0  0  0  0  0  0  0  0
  -24.0103   11.0215   30.7265 H   0  0  0  0  0  0  0  0  0  0  0  0
  -23.7497   14.8561   30.0448 N   0  0  0  0  0  0  0  0  0  0  0  0
  -24.0712   15.8764   30.8498 C   0  0  0  0  0  0  0  0  0  0  0  0
  -24.3215   16.8008   30.3960 H   0  0  0  0  0  0  0  0  0  0  0  0
  -24.0855   15.7595   32.2411 C   0  0  0  0  0  0  0  0  0  0  0  0
  -24.3457   16.5934   32.8392 H   0  0  0  0  0  0  0  0  0  0  0  0
  -23.7589   14.5440   32.8369 C   0  0  0  0  0  0  0  0  0  0  0  0
  -23.7617   14.4168   33.8884 H   0  0  0  0  0  0  0  0  0  0  0  0
  -22.3455   14.0350   28.3088 H   0  0  0  0  0  0  0  0  0  0  0  0
  1  2  1  0
  2  3  1  0
  2 24  2  0
  3  4  1  0
  3 19  2  0
  4  5  1  0
  4 15  1  0
  5  6  1  0
  5 11  1  0
  5 26  1  0
  6  7  1  0
  6  8  1  0
  6  9  1  0
  9 10  1  0
 11 12  1  0
 11 13  1  0
 11 14  1  0
 15 16  1  0
 15 17  1  0
 15 18  1  0
 19 20  1  0
 20 21  1  0
 20 22  2  0
 22 23  1  0
 22 24  1  0
 24 25  1  0
M  END
$$$$
