F600_91
     RDKit          3D

 16 16  0  0  0  0  0  0  0  0999 V2000
  -24.8055   14.3660   27.8178 O   0  0  0  0  0  0  0  0  0  0  0  0
  -24.7650   12.9521   28.0110 C   0  0  0  0  0  0  0  0  0  0  0  0
  -25.1176   12.7086   29.0208 H   0  0  0  0  0  0  0  0  0  0  0  0
  -25.4127   12.4536   27.2808 H   0  0  0  0  0  0  0  0  0  0  0  0
  -23.3493   12.5140   27.8491 C   0  0  0  0  0  0  0  0  0  0  0  0
  -22.0584   13.4570   28.4645 S   0  0  0  0  0  0  0  0  0  0  0  0
  -21.0227   12.2675   27.8274 C   0  0  0  0  0  0  0  0  0  0  0  0
  -19.6913   12.3822   27.9678 N   0  0  0  0  0  0  0  0  0  0  0  0
  -19.2636   13.1627   28.4501 H   0  0  0  0  0  0  0  0  0  0  0  0
  -19.0749   11.6739   27.5878 H   0  0  0  0  0  0  0  0  0  0  0  0
  -21.6016   11.2821   27.2156 N   0  0  0  0  0  0  0  0  0  0  0  0
  -22.9725   11.4344   27.2326 N   0  0  0  0  0  0  0  0  0  0  0  0
  -26.1037   14.8899   28.0592 C   0  0  0  0  0  0  0  0  0  0  0  0
  -26.0746   15.9710   27.8964 H   0  0  0  0  0  0  0  0  0  0  0  0
  -26.4074   14.7007   29.0931 H   0  0  0  0  0  0  0  0  0  0  0  0
  -26.8286   14.4521   27.3663 H   0  0  0  0  0  0  0  0  0  0  0  0
  1  2  1  0
  1 13  1  0
  2  3  1  0
  2  4  1  0
  2  5  1  0
  5  6  1  0
  5 12  2  0
  6  7  1  0
  7  8  1  0
  7 11  2  0
  8  9  1  0
  8 10  1  0
 11 12  1  0
 13 14  1  0
 13 15  1  0
 13 16  1  0
M  END
$$$$
