F309_48
     RDKit          3D

 14 14  0  0  0  0  0  0  0  0999 V2000
  -25.7687   15.6191   29.1537 O   0  0  0  0  0  0  0  0  0  0  0  0
  -25.5941   14.9085   28.1251 C   0  0  0  0  0  0  0  0  0  0  0  0
  -26.1192   15.2568   27.0264 O   0  0  0  0  0  0  0  0  0  0  0  0
  -24.7901   13.6956   28.2044 C   0  0  0  0  0  0  0  0  0  0  0  0
  -24.1178   13.2034   29.3108 C   0  0  0  0  0  0  0  0  0  0  0  0
  -24.1007   13.8536   30.6634 C   0  0  0  0  0  0  0  0  0  0  0  0
  -23.4975   13.2771   31.3722 H   0  0  0  0  0  0  0  0  0  0  0  0
  -25.1136   13.9206   31.0731 H   0  0  0  0  0  0  0  0  0  0  0  0
  -23.6656   14.8569   30.6040 H   0  0  0  0  0  0  0  0  0  0  0  0
  -23.4333   12.0050   29.0516 C   0  0  0  0  0  0  0  0  0  0  0  0
  -22.8670   11.4838   29.7790 H   0  0  0  0  0  0  0  0  0  0  0  0
  -23.5719   11.5765   27.7636 C   0  0  0  0  0  0  0  0  0  0  0  0
  -23.1553   10.7072   27.3247 H   0  0  0  0  0  0  0  0  0  0  0  0
  -24.5533   12.6442   26.8367 S   0  0  0  0  0  0  0  0  0  0  0  0
  1  2  1  0
  2  3  2  0
  2  4  1  0
  4  5  2  0
  4 14  1  0
  5  6  1  0
  5 10  1  0
  6  7  1  0
  6  8  1  0
  6  9  1  0
 10 11  1  0
 10 12  2  0
 12 13  1  0
 12 14  1  0
M  END
$$$$
