F274_83
     RDKit          3D

 26 27  0  0  0  0  0  0  0  0999 V2000
  -25.1084   14.1721   26.9816 O   0  0  0  0  0  0  0  0  0  0  0  0
  -24.8126   14.8277   27.9888 C   0  0  0  0  0  0  0  0  0  0  0  0
  -23.6909   14.4645   28.7464 N   0  0  0  0  0  0  0  0  0  0  0  0
  -22.8494   13.3397   28.3462 C   0  0  0  0  0  0  0  0  0  0  0  0
  -23.2128   12.9573   27.3849 H   0  0  0  0  0  0  0  0  0  0  0  0
  -21.8201   13.6826   28.1947 H   0  0  0  0  0  0  0  0  0  0  0  0
  -22.9034   12.2780   29.3754 C   0  0  0  0  0  0  0  0  0  0  0  0
  -23.0056   12.6619   30.6498 O   0  0  0  0  0  0  0  0  0  0  0  0
  -23.0299   11.5909   31.4539 N   0  0  0  0  0  0  0  0  0  0  0  0
  -22.9447   10.5486   30.7017 C   0  0  0  0  0  0  0  0  0  0  0  0
  -22.9490    9.1872   31.2757 C   0  0  0  0  0  0  0  0  0  0  0  0
  -22.6700    8.4418   30.5235 H   0  0  0  0  0  0  0  0  0  0  0  0
  -23.9466    8.9327   31.6493 H   0  0  0  0  0  0  0  0  0  0  0  0
  -22.2384    9.1092   32.1050 H   0  0  0  0  0  0  0  0  0  0  0  0
  -22.8581   10.9370   29.3726 C   0  0  0  0  0  0  0  0  0  0  0  0
  -22.7712   10.3093   28.5240 H   0  0  0  0  0  0  0  0  0  0  0  0
  -23.3085   15.1332   29.8916 N   0  0  0  0  0  0  0  0  0  0  0  0
  -23.9954   16.1497   30.3111 C   0  0  0  0  0  0  0  0  0  0  0  0
  -23.5621   16.8609   31.5617 C   0  0  0  0  0  0  0  0  0  0  0  0
  -22.5239   17.1896   31.4498 H   0  0  0  0  0  0  0  0  0  0  0  0
  -23.6272   16.1708   32.4087 H   0  0  0  0  0  0  0  0  0  0  0  0
  -24.1885   17.7326   31.7661 H   0  0  0  0  0  0  0  0  0  0  0  0
  -25.1488   16.5960   29.6029 C   0  0  0  0  0  0  0  0  0  0  0  0
  -25.6872   17.4319   29.9690 H   0  0  0  0  0  0  0  0  0  0  0  0
  -25.5484   15.9533   28.4680 C   0  0  0  0  0  0  0  0  0  0  0  0
  -26.3997   16.2597   27.9196 H   0  0  0  0  0  0  0  0  0  0  0  0
  1  2  2  0
  2  3  1  0
  2 25  1  0
  3  4  1  0
  3 17  1  0
  4  5  1  0
  4  6  1  0
  4  7  1  0
  7  8  1  0
  7 15  2  0
  8  9  1  0
  9 10  2  0
 10 11  1  0
 10 15  1  0
 11 12  1  0
 11 13  1  0
 11 14  1  0
 15 16  1  0
 17 18  2  0
 18 19  1  0
 18 23  1  0
 19 20  1  0
 19 21  1  0
 19 22  1  0
 23 24  1  0
 23 25  2  0
 25 26  1  0
M  END
$$$$
