F275_52
     RDKit          3D

 20 20  0  0  0  0  0  0  0  0999 V2000
  -26.0680   14.2033   28.2052 S   0  0  0  0  0  0  0  0  0  0  0  0
  -26.9018   13.2346   28.8789 O   0  0  0  0  0  0  0  0  0  0  0  0
  -26.6179   15.2097   27.3231 O   0  0  0  0  0  0  0  0  0  0  0  0
  -24.9226   13.3398   27.3188 N   0  0  0  0  0  0  0  0  0  0  0  0
  -24.2549   13.9537   26.8469 H   0  0  0  0  0  0  0  0  0  0  0  0
  -24.4850   12.5964   27.8693 H   0  0  0  0  0  0  0  0  0  0  0  0
  -25.0559   15.0034   29.4032 C   0  0  0  0  0  0  0  0  0  0  0  0
  -24.6935   16.3439   29.2408 C   0  0  0  0  0  0  0  0  0  0  0  0
  -25.0030   16.8877   28.3860 H   0  0  0  0  0  0  0  0  0  0  0  0
  -23.9252   16.9561   30.2194 C   0  0  0  0  0  0  0  0  0  0  0  0
  -23.5777   18.2410   30.0563 F   0  0  0  0  0  0  0  0  0  0  0  0
  -23.5080   16.2915   31.3628 C   0  0  0  0  0  0  0  0  0  0  0  0
  -22.9245   16.7982   32.0877 H   0  0  0  0  0  0  0  0  0  0  0  0
  -23.8739   14.9589   31.5381 C   0  0  0  0  0  0  0  0  0  0  0  0
  -23.4808   14.2232   32.7857 C   0  0  0  0  0  0  0  0  0  0  0  0
  -22.5334   14.6029   33.1826 H   0  0  0  0  0  0  0  0  0  0  0  0
  -23.3427   13.1563   32.5823 H   0  0  0  0  0  0  0  0  0  0  0  0
  -24.2560   14.3397   33.5486 H   0  0  0  0  0  0  0  0  0  0  0  0
  -24.6497   14.3270   30.5618 C   0  0  0  0  0  0  0  0  0  0  0  0
  -24.9449   13.3158   30.6968 H   0  0  0  0  0  0  0  0  0  0  0  0
  1  2  2  0
  1  3  2  0
  1  4  1  0
  1  7  1  0
  4  5  1  0
  4  6  1  0
  7  8  1  0
  7 19  2  0
  8  9  1  0
  8 10  2  0
 10 11  1  0
 10 12  1  0
 12 13  1  0
 12 14  2  0
 14 15  1  0
 14 19  1  0
 15 16  1  0
 15 17  1  0
 15 18  1  0
 19 20  1  0
M  END
$$$$
