F616_80
     RDKit          3D

 26 26  0  0  0  0  0  0  0  0999 V2000
  -14.7129   17.9756   27.1285 S   0  0  0  0  0  0  0  0  0  0  0  0
  -14.2631   17.5117   25.8342 O   0  0  0  0  0  0  0  0  0  0  0  0
  -15.2286   17.0623   28.1260 O   0  0  0  0  0  0  0  0  0  0  0  0
  -15.8842   19.1662   26.9093 N   0  0  0  0  0  0  0  0  0  0  0  0
  -15.6577   19.8645   26.1967 H   0  0  0  0  0  0  0  0  0  0  0  0
  -17.3103   18.8266   27.0754 C   0  0  0  0  0  0  0  0  0  0  0  0
  -17.6845   18.4654   26.1111 H   0  0  0  0  0  0  0  0  0  0  0  0
  -17.4403   18.0290   27.8150 H   0  0  0  0  0  0  0  0  0  0  0  0
  -18.1075   20.0669   27.4859 C   0  0  0  0  0  0  0  0  0  0  0  0
  -17.6609   20.5355   28.3726 H   0  0  0  0  0  0  0  0  0  0  0  0
  -18.0408   20.8159   26.6865 H   0  0  0  0  0  0  0  0  0  0  0  0
  -19.5678   19.7718   27.7501 C   0  0  0  0  0  0  0  0  0  0  0  0
  -19.9896   19.4160   29.0366 C   0  0  0  0  0  0  0  0  0  0  0  0
  -19.2875   19.3389   29.8256 H   0  0  0  0  0  0  0  0  0  0  0  0
  -21.3356   19.1601   29.2875 C   0  0  0  0  0  0  0  0  0  0  0  0
  -21.6667   18.8897   30.2567 H   0  0  0  0  0  0  0  0  0  0  0  0
  -22.2429   19.2671   28.2434 C   0  0  0  0  0  0  0  0  0  0  0  0
  -23.5389   19.0212   28.4834 F   0  0  0  0  0  0  0  0  0  0  0  0
  -21.8527   19.6230   26.9605 C   0  0  0  0  0  0  0  0  0  0  0  0
  -22.5703   19.7027   26.1867 H   0  0  0  0  0  0  0  0  0  0  0  0
  -20.5047   19.8754   26.7170 C   0  0  0  0  0  0  0  0  0  0  0  0
  -20.1934   20.1565   25.7426 H   0  0  0  0  0  0  0  0  0  0  0  0
  -13.3930   18.9049   27.8782 C   0  0  0  0  0  0  0  0  0  0  0  0
  -13.0276   19.6495   27.1689 H   0  0  0  0  0  0  0  0  0  0  0  0
  -12.5891   18.2074   28.1242 H   0  0  0  0  0  0  0  0  0  0  0  0
  -13.7645   19.3768   28.7892 H   0  0  0  0  0  0  0  0  0  0  0  0
  1  2  2  0
  1  3  2  0
  1  4  1  0
  1 23  1  0
  4  5  1  0
  4  6  1  0
  6  7  1  0
  6  8  1  0
  6  9  1  0
  9 10  1  0
  9 11  1  0
  9 12  1  0
 12 13  1  0
 12 21  2  0
 13 14  1  0
 13 15  2  0
 15 16  1  0
 15 17  1  0
 17 18  1  0
 17 19  2  0
 19 20  1  0
 19 21  1  0
 21 22  1  0
 23 24  1  0
 23 25  1  0
 23 26  1  0
M  END
$$$$
