F741_67
     RDKit          3D

 25 27  0  0  0  0  0  0  0  0999 V2000
  -20.7316   13.1788   28.6368 O   0  0  0  0  0  0  0  0  0  0  0  0
  -21.5655   12.9822   27.7549 C   0  0  0  0  0  0  0  0  0  0  0  0
  -21.1321   12.8156   26.4737 N   0  0  0  0  0  0  0  0  0  0  0  0
  -21.8725   12.6395   25.7748 H   0  0  0  0  0  0  0  0  0  0  0  0
  -19.7681   12.8610   26.0646 C   0  0  0  0  0  0  0  0  0  0  0  0
  -19.2424   13.7366   26.4382 H   0  0  0  0  0  0  0  0  0  0  0  0
  -19.3579   12.3646   24.7045 C   0  0  0  0  0  0  0  0  0  0  0  0
  -20.1112   11.9321   24.0574 H   0  0  0  0  0  0  0  0  0  0  0  0
  -18.5822   12.9116   24.1817 H   0  0  0  0  0  0  0  0  0  0  0  0
  -18.9668   11.5956   25.9319 C   0  0  0  0  0  0  0  0  0  0  0  0
  -17.9302   11.6228   26.2452 H   0  0  0  0  0  0  0  0  0  0  0  0
  -19.4646   10.6513   26.1206 H   0  0  0  0  0  0  0  0  0  0  0  0
  -22.9900   12.9059   27.9817 C   0  0  0  0  0  0  0  0  0  0  0  0
  -23.6121   12.8109   29.2013 C   0  0  0  0  0  0  0  0  0  0  0  0
  -24.9529   12.7685   28.9004 N   0  0  0  0  0  0  0  0  0  0  0  0
  -25.1996   12.8350   27.5651 N   0  0  0  0  0  0  0  0  0  0  0  0
  -24.0064   12.9169   27.0275 C   0  0  0  0  0  0  0  0  0  0  0  0
  -23.8462   12.9844   25.9800 H   0  0  0  0  0  0  0  0  0  0  0  0
  -25.9231   12.6689   29.9055 C   0  0  0  0  0  0  0  0  0  0  0  0
  -26.9292   12.6420   29.5761 H   0  0  0  0  0  0  0  0  0  0  0  0
  -25.4573   12.6168   31.1911 C   0  0  0  0  0  0  0  0  0  0  0  0
  -26.1280   12.5396   32.0065 H   0  0  0  0  0  0  0  0  0  0  0  0
  -24.0505   12.6641   31.4646 C   0  0  0  0  0  0  0  0  0  0  0  0
  -23.7137   12.6218   32.4686 H   0  0  0  0  0  0  0  0  0  0  0  0
  -23.1508   12.7576   30.5235 N   0  0  0  0  0  0  0  0  0  0  0  0
  1  2  2  0
  2  3  1  0
  2 13  1  0
  3  4  1  0
  3  5  1  0
  5  6  1  0
  5  7  1  0
  5 10  1  0
  7  8  1  0
  7  9  1  0
  7 10  1  0
 10 11  1  0
 10 12  1  0
 13 14  2  0
 13 17  1  0
 14 15  1  0
 14 25  1  0
 15 16  1  0
 15 19  1  0
 16 17  2  0
 17 18  1  0
 19 20  1  0
 19 21  2  0
 21 22  1  0
 21 23  1  0
 23 24  1  0
 23 25  2  0
M  END
$$$$
