F579_36
     RDKit          3D

 29 31  0  0  0  0  0  0  0  0999 V2000
  -25.3679   13.1628   27.9867 O   0  0  0  0  0  0  0  0  0  0  0  0
  -24.9911   13.0427   29.1309 C   0  0  0  0  0  0  0  0  0  0  0  0
  -23.6845   12.8102   29.4348 N   0  0  0  0  0  0  0  0  0  0  0  0
  -23.4590   12.7000   30.4269 H   0  0  0  0  0  0  0  0  0  0  0  0
  -22.5942   12.6900   28.6052 C   0  0  0  0  0  0  0  0  0  0  0  0
  -22.7257   12.8681   26.8823 S   0  0  0  0  0  0  0  0  0  0  0  0
  -21.0231   12.5835   26.7764 C   0  0  0  0  0  0  0  0  0  0  0  0
  -20.5043   12.3789   28.0542 C   0  0  0  0  0  0  0  0  0  0  0  0
  -21.4206   12.4438   29.0966 N   0  0  0  0  0  0  0  0  0  0  0  0
  -19.1292   12.1295   28.1967 C   0  0  0  0  0  0  0  0  0  0  0  0
  -18.7299   11.9725   29.1641 H   0  0  0  0  0  0  0  0  0  0  0  0
  -18.3112   12.0896   27.0766 C   0  0  0  0  0  0  0  0  0  0  0  0
  -17.2754   11.9019   27.1883 H   0  0  0  0  0  0  0  0  0  0  0  0
  -18.8647   12.3019   25.7939 C   0  0  0  0  0  0  0  0  0  0  0  0
  -18.1569   12.2880   24.6179 O   0  0  0  0  0  0  0  0  0  0  0  0
  -17.8936   13.5422   23.9996 C   0  0  0  0  0  0  0  0  0  0  0  0
  -17.2757   14.1771   24.6433 H   0  0  0  0  0  0  0  0  0  0  0  0
  -17.3291   13.3506   23.0821 H   0  0  0  0  0  0  0  0  0  0  0  0
  -18.8236   14.0470   23.7184 H   0  0  0  0  0  0  0  0  0  0  0  0
  -20.2155   12.5491   25.6317 C   0  0  0  0  0  0  0  0  0  0  0  0
  -20.6280   12.7061   24.6694 H   0  0  0  0  0  0  0  0  0  0  0  0
  -25.9114   13.1573   30.2835 C   0  0  0  0  0  0  0  0  0  0  0  0
  -26.0253   12.2314   30.8408 H   0  0  0  0  0  0  0  0  0  0  0  0
  -27.0982   14.0908   30.2427 C   0  0  0  0  0  0  0  0  0  0  0  0
  -27.2586   14.7102   29.3674 H   0  0  0  0  0  0  0  0  0  0  0  0
  -28.0104   13.7713   30.7318 H   0  0  0  0  0  0  0  0  0  0  0  0
  -25.9193   14.4205   31.1098 C   0  0  0  0  0  0  0  0  0  0  0  0
  -26.0309   14.3216   32.1828 H   0  0  0  0  0  0  0  0  0  0  0  0
  -25.2757   15.2393   30.8053 H   0  0  0  0  0  0  0  0  0  0  0  0
  1  2  2  0
  2  3  1  0
  2 22  1  0
  3  4  1  0
  3  5  1  0
  5  6  1  0
  5  9  2  0
  6  7  1  0
  7  8  1  0
  7 20  2  0
  8  9  1  0
  8 10  2  0
 10 11  1  0
 10 12  1  0
 12 13  1  0
 12 14  2  0
 14 15  1  0
 14 20  1  0
 15 16  1  0
 16 17  1  0
 16 18  1  0
 16 19  1  0
 20 21  1  0
 22 23  1  0
 22 24  1  0
 22 27  1  0
 24 25  1  0
 24 26  1  0
 24 27  1  0
 27 28  1  0
 27 29  1  0
M  END
$$$$
