F687_96
     RDKit          3D

 24 25  0  0  0  0  0  0  0  0999 V2000
  -24.7103   12.6042   26.7483 F   0  0  0  0  0  0  0  0  0  0  0  0
  -24.4519   12.4910   28.0603 C   0  0  0  0  0  0  0  0  0  0  0  0
  -23.1556   12.1745   28.5138 C   0  0  0  0  0  0  0  0  0  0  0  0
  -22.0785   11.9631   27.6719 N   0  0  0  0  0  0  0  0  0  0  0  0
  -22.1553   11.3351   26.8775 H   0  0  0  0  0  0  0  0  0  0  0  0
  -20.7650   12.5760   27.8080 C   0  0  0  0  0  0  0  0  0  0  0  0
  -20.8813   13.6009   28.1827 H   0  0  0  0  0  0  0  0  0  0  0  0
  -20.1768   12.0111   28.5410 H   0  0  0  0  0  0  0  0  0  0  0  0
  -19.9606   12.6468   26.5389 C   0  0  0  0  0  0  0  0  0  0  0  0
  -20.5245   12.9159   25.3862 N   0  0  0  0  0  0  0  0  0  0  0  0
  -19.5077   12.8950   24.4837 N   0  0  0  0  0  0  0  0  0  0  0  0
  -19.6488   13.0739   23.4724 H   0  0  0  0  0  0  0  0  0  0  0  0
  -18.3217   12.6198   25.0650 C   0  0  0  0  0  0  0  0  0  0  0  0
  -17.4153   12.5653   24.5192 H   0  0  0  0  0  0  0  0  0  0  0  0
  -18.5907   12.4610   26.3790 C   0  0  0  0  0  0  0  0  0  0  0  0
  -17.8918   12.2429   27.1464 H   0  0  0  0  0  0  0  0  0  0  0  0
  -22.9419   12.0580   29.8894 C   0  0  0  0  0  0  0  0  0  0  0  0
  -21.9800   11.8065   30.2537 H   0  0  0  0  0  0  0  0  0  0  0  0
  -23.9938   12.2697   30.7808 C   0  0  0  0  0  0  0  0  0  0  0  0
  -23.8233   12.1831   31.8232 H   0  0  0  0  0  0  0  0  0  0  0  0
  -25.2689   12.5958   30.3141 C   0  0  0  0  0  0  0  0  0  0  0  0
  -26.0600   12.7557   31.0013 H   0  0  0  0  0  0  0  0  0  0  0  0
  -25.4994   12.7054   28.9438 C   0  0  0  0  0  0  0  0  0  0  0  0
  -26.4635   12.9446   28.5766 H   0  0  0  0  0  0  0  0  0  0  0  0
  1  2  1  0
  2  3  1  0
  2 23  2  0
  3  4  1  0
  3 17  2  0
  4  5  1  0
  4  6  1  0
  6  7  1  0
  6  8  1  0
  6  9  1  0
  9 10  2  0
  9 15  1  0
 10 11  1  0
 11 12  1  0
 11 13  1  0
 13 14  1  0
 13 15  2  0
 15 16  1  0
 17 18  1  0
 17 19  1  0
 19 20  1  0
 19 21  2  0
 21 22  1  0
 21 23  1  0
 23 24  1  0
M  END
$$$$
