F366_19
     RDKit          3D

 22 22  0  0  0  0  0  0  0  0999 V2000
  -21.2356   13.2245   26.4494 O   0  0  0  0  0  0  0  0  0  0  0  0
  -20.3354   13.5748   26.3331 H   0  0  0  0  0  0  0  0  0  0  0  0
  -21.2843   12.6223   27.7399 C   0  0  0  0  0  0  0  0  0  0  0  0
  -20.5075   11.8523   27.8003 H   0  0  0  0  0  0  0  0  0  0  0  0
  -21.0670   13.4023   28.4765 H   0  0  0  0  0  0  0  0  0  0  0  0
  -22.6737   12.0421   27.9959 C   0  0  0  0  0  0  0  0  0  0  0  0
  -22.8366   11.2001   27.3120 H   0  0  0  0  0  0  0  0  0  0  0  0
  -22.7331   11.6486   29.0189 H   0  0  0  0  0  0  0  0  0  0  0  0
  -23.7676   13.0445   27.8011 C   0  0  0  0  0  0  0  0  0  0  0  0
  -23.9514   14.1969   28.4838 C   0  0  0  0  0  0  0  0  0  0  0  0
  -23.4055   14.6400   29.2749 H   0  0  0  0  0  0  0  0  0  0  0  0
  -25.0569   14.7684   27.9580 N   0  0  0  0  0  0  0  0  0  0  0  0
  -25.6764   16.0206   28.3343 C   0  0  0  0  0  0  0  0  0  0  0  0
  -24.9606   16.8231   28.1263 H   0  0  0  0  0  0  0  0  0  0  0  0
  -26.5467   16.1693   27.6860 H   0  0  0  0  0  0  0  0  0  0  0  0
  -26.0831   16.0413   29.7969 C   0  0  0  0  0  0  0  0  0  0  0  0
  -25.2147   15.8953   30.4499 H   0  0  0  0  0  0  0  0  0  0  0  0
  -26.8039   15.2473   30.0193 H   0  0  0  0  0  0  0  0  0  0  0  0
  -26.5429   17.0015   30.0500 H   0  0  0  0  0  0  0  0  0  0  0  0
  -25.5890   14.0158   26.9629 N   0  0  0  0  0  0  0  0  0  0  0  0
  -24.8028   12.9774   26.8726 C   0  0  0  0  0  0  0  0  0  0  0  0
  -24.9516   12.1886   26.1764 H   0  0  0  0  0  0  0  0  0  0  0  0
  1  2  1  0
  1  3  1  0
  3  4  1  0
  3  5  1  0
  3  6  1  0
  6  7  1  0
  6  8  1  0
  6  9  1  0
  9 10  2  0
  9 21  1  0
 10 11  1  0
 10 12  1  0
 12 13  1  0
 12 20  1  0
 13 14  1  0
 13 15  1  0
 13 16  1  0
 16 17  1  0
 16 18  1  0
 16 19  1  0
 20 21  2  0
 21 22  1  0
M  END
$$$$
