F558_92
     RDKit          3D

 32 33  0  0  0  0  0  0  0  0999 V2000
  -17.4417   17.4176   27.8489 O   0  0  0  0  0  0  0  0  0  0  0  0
  -16.5991   16.5986   27.5131 C   0  0  0  0  0  0  0  0  0  0  0  0
  -15.2791   16.8604   27.3228 O   0  0  0  0  0  0  0  0  0  0  0  0
  -14.9140   18.2285   27.5188 C   0  0  0  0  0  0  0  0  0  0  0  0
  -15.1439   18.5435   28.5409 H   0  0  0  0  0  0  0  0  0  0  0  0
  -15.4258   18.8672   26.7912 H   0  0  0  0  0  0  0  0  0  0  0  0
  -13.8360   18.3167   27.3609 H   0  0  0  0  0  0  0  0  0  0  0  0
  -16.8390   15.2865   27.2419 N   0  0  0  0  0  0  0  0  0  0  0  0
  -16.0142   14.7810   26.9054 H   0  0  0  0  0  0  0  0  0  0  0  0
  -18.0425   14.5562   27.3478 C   0  0  0  0  0  0  0  0  0  0  0  0
  -19.2986   15.1102   27.0898 C   0  0  0  0  0  0  0  0  0  0  0  0
  -19.3937   16.1246   26.8061 H   0  0  0  0  0  0  0  0  0  0  0  0
  -20.4343   14.3179   27.2178 C   0  0  0  0  0  0  0  0  0  0  0  0
  -21.3874   14.7398   27.0233 H   0  0  0  0  0  0  0  0  0  0  0  0
  -20.3293   12.9801   27.6040 C   0  0  0  0  0  0  0  0  0  0  0  0
  -21.5706   12.1307   27.7617 C   0  0  0  0  0  0  0  0  0  0  0  0
  -21.3493   11.2848   28.4260 H   0  0  0  0  0  0  0  0  0  0  0  0
  -21.8297   11.6661   26.8011 H   0  0  0  0  0  0  0  0  0  0  0  0
  -22.7585   12.8973   28.2855 C   0  0  0  0  0  0  0  0  0  0  0  0
  -22.9690   13.0603   29.6497 C   0  0  0  0  0  0  0  0  0  0  0  0
  -22.2852   12.6617   30.3523 H   0  0  0  0  0  0  0  0  0  0  0  0
  -24.0885   13.7533   30.0990 C   0  0  0  0  0  0  0  0  0  0  0  0
  -24.2570   13.8812   31.1389 H   0  0  0  0  0  0  0  0  0  0  0  0
  -24.9781   14.2732   29.2562 N   0  0  0  0  0  0  0  0  0  0  0  0
  -24.7989   14.1273   27.9447 C   0  0  0  0  0  0  0  0  0  0  0  0
  -25.5240   14.5477   27.2937 H   0  0  0  0  0  0  0  0  0  0  0  0
  -23.7027   13.4457   27.4260 C   0  0  0  0  0  0  0  0  0  0  0  0
  -23.5958   13.3437   26.3767 H   0  0  0  0  0  0  0  0  0  0  0  0
  -19.0683   12.4413   27.8713 C   0  0  0  0  0  0  0  0  0  0  0  0
  -18.9748   11.4288   28.1696 H   0  0  0  0  0  0  0  0  0  0  0  0
  -17.9261   13.2248   27.7463 C   0  0  0  0  0  0  0  0  0  0  0  0
  -16.9723   12.8097   27.9460 H   0  0  0  0  0  0  0  0  0  0  0  0
  1  2  2  0
  2  3  1  0
  2  8  1  0
  3  4  1  0
  4  5  1  0
  4  6  1  0
  4  7  1  0
  8  9  1  0
  8 10  1  0
 10 11  1  0
 10 31  2  0
 11 12  1  0
 11 13  2  0
 13 14  1  0
 13 15  1  0
 15 16  1  0
 15 29  2  0
 16 17  1  0
 16 18  1  0
 16 19  1  0
 19 20  1  0
 19 27  2  0
 20 21  1  0
 20 22  2  0
 22 23  1  0
 22 24  1  0
 24 25  2  0
 25 26  1  0
 25 27  1  0
 27 28  1  0
 29 30  1  0
 29 31  1  0
 31 32  1  0
M  END
$$$$
