F369_9
     RDKit          3D

 32 33  0  0  0  0  0  0  0  0999 V2000
  -20.9512   14.3265   28.0947 O   0  0  0  0  0  0  0  0  0  0  0  0
  -20.8514   13.3214   27.4188 C   0  0  0  0  0  0  0  0  0  0  0  0
  -21.9334   12.5172   27.1982 N   0  0  0  0  0  0  0  0  0  0  0  0
  -21.7314   11.6966   26.6185 H   0  0  0  0  0  0  0  0  0  0  0  0
  -23.2318   12.6757   27.6584 C   0  0  0  0  0  0  0  0  0  0  0  0
  -23.7275   13.6923   28.3937 C   0  0  0  0  0  0  0  0  0  0  0  0
  -23.2785   14.5715   28.7744 H   0  0  0  0  0  0  0  0  0  0  0  0
  -25.0318   13.3805   28.5847 N   0  0  0  0  0  0  0  0  0  0  0  0
  -26.0241   14.1365   29.3192 C   0  0  0  0  0  0  0  0  0  0  0  0
  -26.9003   13.4924   29.4500 H   0  0  0  0  0  0  0  0  0  0  0  0
  -25.6130   14.3525   30.3115 H   0  0  0  0  0  0  0  0  0  0  0  0
  -26.4029   15.4266   28.6138 C   0  0  0  0  0  0  0  0  0  0  0  0
  -26.8288   15.2267   27.6250 H   0  0  0  0  0  0  0  0  0  0  0  0
  -25.5287   16.0723   28.4758 H   0  0  0  0  0  0  0  0  0  0  0  0
  -27.1448   15.9768   29.2002 H   0  0  0  0  0  0  0  0  0  0  0  0
  -25.3740   12.2009   27.9880 N   0  0  0  0  0  0  0  0  0  0  0  0
  -24.2701   11.7778   27.4277 C   0  0  0  0  0  0  0  0  0  0  0  0
  -24.2016   10.8750   26.8784 H   0  0  0  0  0  0  0  0  0  0  0  0
  -19.5343   12.8843   26.7953 C   0  0  0  0  0  0  0  0  0  0  0  0
  -19.1269   12.0921   27.4359 H   0  0  0  0  0  0  0  0  0  0  0  0
  -19.7073   12.3507   25.3671 C   0  0  0  0  0  0  0  0  0  0  0  0
  -19.7028   11.2558   25.3451 H   0  0  0  0  0  0  0  0  0  0  0  0
  -20.6511   12.6757   24.9160 H   0  0  0  0  0  0  0  0  0  0  0  0
  -18.5315   12.9187   24.5849 C   0  0  0  0  0  0  0  0  0  0  0  0
  -17.6456   12.2881   24.7245 H   0  0  0  0  0  0  0  0  0  0  0  0
  -18.7382   12.9847   23.5131 H   0  0  0  0  0  0  0  0  0  0  0  0
  -18.3093   14.2812   25.2172 C   0  0  0  0  0  0  0  0  0  0  0  0
  -19.0569   14.9949   24.8540 H   0  0  0  0  0  0  0  0  0  0  0  0
  -17.3179   14.6855   24.9949 H   0  0  0  0  0  0  0  0  0  0  0  0
  -18.5034   14.0196   26.7057 C   0  0  0  0  0  0  0  0  0  0  0  0
  -18.7938   14.9282   27.2423 H   0  0  0  0  0  0  0  0  0  0  0  0
  -17.5539   13.6774   27.1376 H   0  0  0  0  0  0  0  0  0  0  0  0
  1  2  2  0
  2  3  1  0
  2 19  1  0
  3  4  1  0
  3  5  1  0
  5  6  2  0
  5 17  1  0
  6  7  1  0
  6  8  1  0
  8  9  1  0
  8 16  1  0
  9 10  1  0
  9 11  1  0
  9 12  1  0
 12 13  1  0
 12 14  1  0
 12 15  1  0
 16 17  2  0
 17 18  1  0
 19 20  1  0
 19 21  1  0
 19 30  1  0
 21 22  1  0
 21 23  1  0
 21 24  1  0
 24 25  1  0
 24 26  1  0
 24 27  1  0
 27 28  1  0
 27 29  1  0
 27 30  1  0
 30 31  1  0
 30 32  1  0
M  END
$$$$
