F217_91
     RDKit          3D

 28 29  0  0  0  0  0  0  0  0999 V2000
  -17.2217   14.7776   27.6427 O   0  0  0  0  0  0  0  0  0  0  0  0
  -17.9032   14.8968   26.6379 C   0  0  0  0  0  0  0  0  0  0  0  0
  -17.4994   15.6972   25.6717 N   0  0  0  0  0  0  0  0  0  0  0  0
  -16.6283   16.1790   25.8211 H   0  0  0  0  0  0  0  0  0  0  0  0
  -18.0408   15.8197   24.8340 H   0  0  0  0  0  0  0  0  0  0  0  0
  -19.2065   14.1803   26.4037 C   0  0  0  0  0  0  0  0  0  0  0  0
  -19.9964   14.9269   26.2658 H   0  0  0  0  0  0  0  0  0  0  0  0
  -19.1236   13.6122   25.4693 H   0  0  0  0  0  0  0  0  0  0  0  0
  -19.5390   13.2575   27.5687 C   0  0  0  0  0  0  0  0  0  0  0  0
  -19.7308   13.8285   28.4837 H   0  0  0  0  0  0  0  0  0  0  0  0
  -18.7038   12.5831   27.7947 H   0  0  0  0  0  0  0  0  0  0  0  0
  -20.7016   12.4368   27.2869 N   0  0  0  0  0  0  0  0  0  0  0  0
  -20.7384   11.2883   26.5304 C   0  0  0  0  0  0  0  0  0  0  0  0
  -19.5423   10.7112   25.8616 C   0  0  0  0  0  0  0  0  0  0  0  0
  -19.7893    9.7506   25.4000 H   0  0  0  0  0  0  0  0  0  0  0  0
  -18.7362   10.5406   26.5805 H   0  0  0  0  0  0  0  0  0  0  0  0
  -19.1817   11.3797   25.0740 H   0  0  0  0  0  0  0  0  0  0  0  0
  -21.9270   10.7858   26.4801 N   0  0  0  0  0  0  0  0  0  0  0  0
  -22.7205   11.6265   27.2288 C   0  0  0  0  0  0  0  0  0  0  0  0
  -21.9676   12.6650   27.7382 C   0  0  0  0  0  0  0  0  0  0  0  0
  -22.5129   13.6775   28.5412 C   0  0  0  0  0  0  0  0  0  0  0  0
  -21.9134   14.4664   28.9162 H   0  0  0  0  0  0  0  0  0  0  0  0
  -23.8680   13.6114   28.8265 C   0  0  0  0  0  0  0  0  0  0  0  0
  -24.3196   14.3555   29.4292 H   0  0  0  0  0  0  0  0  0  0  0  0
  -24.6558   12.5543   28.3165 C   0  0  0  0  0  0  0  0  0  0  0  0
  -25.6915   12.5189   28.5441 H   0  0  0  0  0  0  0  0  0  0  0  0
  -24.0895   11.5667   27.5220 C   0  0  0  0  0  0  0  0  0  0  0  0
  -24.6703   10.7729   27.1343 H   0  0  0  0  0  0  0  0  0  0  0  0
  1  2  2  0
  2  3  1  0
  2  6  1  0
  3  4  1  0
  3  5  1  0
  6  7  1  0
  6  8  1  0
  6  9  1  0
  9 10  1  0
  9 11  1  0
  9 12  1  0
 12 13  1  0
 12 20  1  0
 13 14  1  0
 13 18  2  0
 14 15  1  0
 14 16  1  0
 14 17  1  0
 18 19  1  0
 19 20  1  0
 19 27  2  0
 20 21  2  0
 21 22  1  0
 21 23  1  0
 23 24  1  0
 23 25  2  0
 25 26  1  0
 25 27  1  0
 27 28  1  0
M  END
$$$$
