F584_32
     RDKit          3D

 27 28  0  0  0  0  0  0  0  0999 V2000
  -22.0703    9.8801   31.6245 O   0  0  0  0  0  0  0  0  0  0  0  0
  -22.7782    8.7171   32.0321 C   0  0  0  0  0  0  0  0  0  0  0  0
  -22.3173    7.8555   31.5385 H   0  0  0  0  0  0  0  0  0  0  0  0
  -23.8256    8.7600   31.7140 H   0  0  0  0  0  0  0  0  0  0  0  0
  -22.6966    8.5625   33.1130 H   0  0  0  0  0  0  0  0  0  0  0  0
  -22.4851   11.1042   32.1058 C   0  0  0  0  0  0  0  0  0  0  0  0
  -22.9451   12.0158   31.1448 C   0  0  0  0  0  0  0  0  0  0  0  0
  -23.3505   13.2834   31.5891 C   0  0  0  0  0  0  0  0  0  0  0  0
  -23.8018   14.3608   30.7900 N   0  0  0  0  0  0  0  0  0  0  0  0
  -24.1528   15.1750   31.3084 H   0  0  0  0  0  0  0  0  0  0  0  0
  -23.8678   14.5788   29.4500 C   0  0  0  0  0  0  0  0  0  0  0  0
  -24.2984   15.6734   29.1703 O   0  0  0  0  0  0  0  0  0  0  0  0
  -23.3753   13.6052   28.4368 C   0  0  0  0  0  0  0  0  0  0  0  0
  -23.7600   13.9292   27.4621 H   0  0  0  0  0  0  0  0  0  0  0  0
  -22.2816   13.6525   28.3910 H   0  0  0  0  0  0  0  0  0  0  0  0
  -23.8889   12.2189   28.7282 C   0  0  0  0  0  0  0  0  0  0  0  0
  -24.9242   12.2366   29.0915 H   0  0  0  0  0  0  0  0  0  0  0  0
  -23.8873   11.6434   27.7950 H   0  0  0  0  0  0  0  0  0  0  0  0
  -22.9819   11.5125   29.7175 C   0  0  0  0  0  0  0  0  0  0  0  0
  -21.9534   11.5006   29.3333 H   0  0  0  0  0  0  0  0  0  0  0  0
  -23.3310   10.4716   29.7224 H   0  0  0  0  0  0  0  0  0  0  0  0
  -23.2976   13.6227   32.9431 C   0  0  0  0  0  0  0  0  0  0  0  0
  -23.6079   14.5845   33.2616 H   0  0  0  0  0  0  0  0  0  0  0  0
  -22.8424   12.7013   33.8767 C   0  0  0  0  0  0  0  0  0  0  0  0
  -22.8059   12.9600   34.9037 H   0  0  0  0  0  0  0  0  0  0  0  0
  -22.4357   11.4380   33.4627 C   0  0  0  0  0  0  0  0  0  0  0  0
  -22.0906   10.7416   34.1798 H   0  0  0  0  0  0  0  0  0  0  0  0
  1  2  1  0
  1  6  1  0
  2  3  1  0
  2  4  1  0
  2  5  1  0
  6  7  1  0
  6 26  2  0
  7  8  2  0
  7 19  1  0
  8  9  1  0
  8 22  1  0
  9 10  1  0
  9 11  1  0
 11 12  2  0
 11 13  1  0
 13 14  1  0
 13 15  1  0
 13 16  1  0
 16 17  1  0
 16 18  1  0
 16 19  1  0
 19 20  1  0
 19 21  1  0
 22 23  1  0
 22 24  2  0
 24 25  1  0
 24 26  1  0
 26 27  1  0
M  END
$$$$
