F666_11
     RDKit          3D

 35 37  0  0  0  0  0  0  0  0999 V2000
  -19.8052   11.0224   24.7716 F   0  0  0  0  0  0  0  0  0  0  0  0
  -19.3282   12.1645   25.2865 C   0  0  0  0  0  0  0  0  0  0  0  0
  -19.3458   13.3125   24.5042 C   0  0  0  0  0  0  0  0  0  0  0  0
  -19.7319   13.2776   23.5189 H   0  0  0  0  0  0  0  0  0  0  0  0
  -18.8497   14.4987   25.0368 C   0  0  0  0  0  0  0  0  0  0  0  0
  -18.8618   15.3722   24.4456 H   0  0  0  0  0  0  0  0  0  0  0  0
  -18.3316   14.5193   26.3442 C   0  0  0  0  0  0  0  0  0  0  0  0
  -17.8189   15.6964   26.8748 N   0  0  0  0  0  0  0  0  0  0  0  0
  -18.6217   16.9212   27.0098 C   0  0  0  0  0  0  0  0  0  0  0  0
  -19.6208   16.8341   26.5713 H   0  0  0  0  0  0  0  0  0  0  0  0
  -18.7699   17.1119   28.0800 H   0  0  0  0  0  0  0  0  0  0  0  0
  -17.8848   18.1153   26.3824 C   0  0  0  0  0  0  0  0  0  0  0  0
  -18.4530   19.0319   26.5573 H   0  0  0  0  0  0  0  0  0  0  0  0
  -17.8068   17.9796   25.2975 H   0  0  0  0  0  0  0  0  0  0  0  0
  -16.5135   18.2208   26.8990 N   0  0  0  0  0  0  0  0  0  0  0  0
  -15.9740   19.3482   27.4721 C   0  0  0  0  0  0  0  0  0  0  0  0
  -14.8182   19.3159   27.8526 O   0  0  0  0  0  0  0  0  0  0  0  0
  -16.8027   20.5672   27.6080 C   0  0  0  0  0  0  0  0  0  0  0  0
  -17.5255   20.5215   28.4168 H   0  0  0  0  0  0  0  0  0  0  0  0
  -17.2597   21.3142   26.3749 C   0  0  0  0  0  0  0  0  0  0  0  0
  -16.9449   20.9463   25.4047 H   0  0  0  0  0  0  0  0  0  0  0  0
  -18.2535   21.7448   26.3839 H   0  0  0  0  0  0  0  0  0  0  0  0
  -16.2201   21.9194   27.2681 C   0  0  0  0  0  0  0  0  0  0  0  0
  -15.2036   21.9677   26.8929 H   0  0  0  0  0  0  0  0  0  0  0  0
  -16.5080   22.7642   27.8823 H   0  0  0  0  0  0  0  0  0  0  0  0
  -15.7226   16.9923   26.7519 C   0  0  0  0  0  0  0  0  0  0  0  0
  -15.5845   16.8329   25.6763 H   0  0  0  0  0  0  0  0  0  0  0  0
  -14.7285   17.0982   27.1976 H   0  0  0  0  0  0  0  0  0  0  0  0
  -16.4370   15.7798   27.3743 C   0  0  0  0  0  0  0  0  0  0  0  0
  -16.4617   15.8793   28.4657 H   0  0  0  0  0  0  0  0  0  0  0  0
  -15.8495   14.8871   27.1329 H   0  0  0  0  0  0  0  0  0  0  0  0
  -18.3462   13.3485   27.1200 C   0  0  0  0  0  0  0  0  0  0  0  0
  -18.0012   13.3690   28.1196 H   0  0  0  0  0  0  0  0  0  0  0  0
  -18.8397   12.1621   26.5856 C   0  0  0  0  0  0  0  0  0  0  0  0
  -18.8539   11.2720   27.1576 H   0  0  0  0  0  0  0  0  0  0  0  0
  1  2  1  0
  2  3  1  0
  2 34  2  0
  3  4  1  0
  3  5  2  0
  5  6  1  0
  5  7  1  0
  7  8  1  0
  7 32  2  0
  8  9  1  0
  8 29  1  0
  9 10  1  0
  9 11  1  0
  9 12  1  0
 12 13  1  0
 12 14  1  0
 12 15  1  0
 15 16  1  0
 15 26  1  0
 16 17  2  0
 16 18  1  0
 18 19  1  0
 18 20  1  0
 18 23  1  0
 20 21  1  0
 20 22  1  0
 20 23  1  0
 23 24  1  0
 23 25  1  0
 26 27  1  0
 26 28  1  0
 26 29  1  0
 29 30  1  0
 29 31  1  0
 32 33  1  0
 32 34  1  0
 34 35  1  0
M  END
$$$$
