F309_78
     RDKit          3D

 14 14  0  0  0  0  0  0  0  0999 V2000
  -25.9932   15.7369   28.3391 O   0  0  0  0  0  0  0  0  0  0  0  0
  -25.4447   14.6564   27.9854 C   0  0  0  0  0  0  0  0  0  0  0  0
  -25.5650   14.2546   26.7903 O   0  0  0  0  0  0  0  0  0  0  0  0
  -24.6760   13.8790   28.9490 C   0  0  0  0  0  0  0  0  0  0  0  0
  -23.9808   12.7037   28.7177 C   0  0  0  0  0  0  0  0  0  0  0  0
  -23.8949   12.0047   27.3923 C   0  0  0  0  0  0  0  0  0  0  0  0
  -23.2917   11.0937   27.4636 H   0  0  0  0  0  0  0  0  0  0  0  0
  -23.4257   12.6511   26.6439 H   0  0  0  0  0  0  0  0  0  0  0  0
  -24.8913   11.7108   27.0455 H   0  0  0  0  0  0  0  0  0  0  0  0
  -23.3413   12.2068   29.8648 C   0  0  0  0  0  0  0  0  0  0  0  0
  -22.7628   11.3198   29.8763 H   0  0  0  0  0  0  0  0  0  0  0  0
  -23.5395   12.9846   30.9683 C   0  0  0  0  0  0  0  0  0  0  0  0
  -23.1653   12.8243   31.9461 H   0  0  0  0  0  0  0  0  0  0  0  0
  -24.5227   14.3530   30.6176 S   0  0  0  0  0  0  0  0  0  0  0  0
  1  2  1  0
  2  3  2  0
  2  4  1  0
  4  5  2  0
  4 14  1  0
  5  6  1  0
  5 10  1  0
  6  7  1  0
  6  8  1  0
  6  9  1  0
 10 11  1  0
 10 12  2  0
 12 13  1  0
 12 14  1  0
M  END
$$$$
