F362_26
     RDKit          3D

 30 31  0  0  0  0  0  0  0  0999 V2000
  -18.4793   19.3006   27.6992 N   0  0  0  0  0  0  0  0  0  0  0  0
  -19.3125   19.3118   28.9171 C   0  0  0  0  0  0  0  0  0  0  0  0
  -19.1683   18.4069   29.5137 H   0  0  0  0  0  0  0  0  0  0  0  0
  -18.9886   20.1238   29.5804 H   0  0  0  0  0  0  0  0  0  0  0  0
  -20.7772   19.5357   28.5719 C   0  0  0  0  0  0  0  0  0  0  0  0
  -21.1579   18.7816   27.8780 H   0  0  0  0  0  0  0  0  0  0  0  0
  -20.9230   20.5146   28.1021 H   0  0  0  0  0  0  0  0  0  0  0  0
  -21.3891   19.5045   29.4794 H   0  0  0  0  0  0  0  0  0  0  0  0
  -18.4443   20.6049   27.0077 C   0  0  0  0  0  0  0  0  0  0  0  0
  -19.2060   20.6554   26.2222 H   0  0  0  0  0  0  0  0  0  0  0  0
  -18.7007   21.4123   27.7056 H   0  0  0  0  0  0  0  0  0  0  0  0
  -17.0618   20.8755   26.4306 C   0  0  0  0  0  0  0  0  0  0  0  0
  -16.7764   20.1167   25.6958 H   0  0  0  0  0  0  0  0  0  0  0  0
  -16.3007   20.8789   27.2171 H   0  0  0  0  0  0  0  0  0  0  0  0
  -17.0438   21.8513   25.9354 H   0  0  0  0  0  0  0  0  0  0  0  0
  -17.7663   18.1452   27.2187 C   0  0  0  0  0  0  0  0  0  0  0  0
  -16.3418   17.9988   27.3911 N   0  0  0  0  0  0  0  0  0  0  0  0
  -15.4491   18.8225   27.9831 N   0  0  0  0  0  0  0  0  0  0  0  0
  -14.3336   18.1758   27.8394 C   0  0  0  0  0  0  0  0  0  0  0  0
  -13.4107   18.5567   28.2028 H   0  0  0  0  0  0  0  0  0  0  0  0
  -14.4152   17.0010   27.2059 N   0  0  0  0  0  0  0  0  0  0  0  0
  -15.6813   16.8891   26.9248 C   0  0  0  0  0  0  0  0  0  0  0  0
  -16.3213   15.8530   26.2661 N   0  0  0  0  0  0  0  0  0  0  0  0
  -17.5992   15.9401   26.0883 C   0  0  0  0  0  0  0  0  0  0  0  0
  -18.3182   14.8274   25.3762 C   0  0  0  0  0  0  0  0  0  0  0  0
  -19.3875   15.0327   25.2876 H   0  0  0  0  0  0  0  0  0  0  0  0
  -18.1810   13.8955   25.9320 H   0  0  0  0  0  0  0  0  0  0  0  0
  -17.8962   14.7093   24.3736 H   0  0  0  0  0  0  0  0  0  0  0  0
  -18.3947   17.1029   26.5625 C   0  0  0  0  0  0  0  0  0  0  0  0
  -19.4331   17.1311   26.3844 H   0  0  0  0  0  0  0  0  0  0  0  0
  1  2  1  0
  1  9  1  0
  1 16  1  0
  2  3  1  0
  2  4  1  0
  2  5  1  0
  5  6  1  0
  5  7  1  0
  5  8  1  0
  9 10  1  0
  9 11  1  0
  9 12  1  0
 12 13  1  0
 12 14  1  0
 12 15  1  0
 16 17  1  0
 16 29  2  0
 17 18  1  0
 17 22  1  0
 18 19  2  0
 19 20  1  0
 19 21  1  0
 21 22  2  0
 22 23  1  0
 23 24  2  0
 24 25  1  0
 24 29  1  0
 25 26  1  0
 25 27  1  0
 25 28  1  0
 29 30  1  0
M  END
$$$$
