F5_80
     RDKit          3D

 21 21  0  0  0  0  0  0  0  0999 V2000
  -21.5463   11.9240   27.4435 Br  0  0  0  0  0  0  0  0  0  0  0  0
  -22.7381   12.6352   28.7299 C   0  0  0  0  0  0  0  0  0  0  0  0
  -23.6313   13.6395   28.3728 C   0  0  0  0  0  0  0  0  0  0  0  0
  -23.6531   14.0165   27.3859 H   0  0  0  0  0  0  0  0  0  0  0  0
  -24.5001   14.1564   29.3293 C   0  0  0  0  0  0  0  0  0  0  0  0
  -25.3455   15.1591   28.9315 O   0  0  0  0  0  0  0  0  0  0  0  0
  -26.4878   14.7751   28.1286 C   0  0  0  0  0  0  0  0  0  0  0  0
  -26.9490   15.6816   27.7400 H   0  0  0  0  0  0  0  0  0  0  0  0
  -27.1815   14.2263   28.7639 H   0  0  0  0  0  0  0  0  0  0  0  0
  -26.1492   14.1426   27.3087 H   0  0  0  0  0  0  0  0  0  0  0  0
  -24.5078   13.6746   30.6457 C   0  0  0  0  0  0  0  0  0  0  0  0
  -25.4747   14.1908   31.7118 C   0  0  0  0  0  0  0  0  0  0  0  0
  -25.3885   13.5724   32.5918 H   0  0  0  0  0  0  0  0  0  0  0  0
  -26.4848   14.2310   31.3395 H   0  0  0  0  0  0  0  0  0  0  0  0
  -25.0690   15.5936   32.1040 C   0  0  0  0  0  0  0  0  0  0  0  0
  -24.3101   15.7192   33.0917 O   0  0  0  0  0  0  0  0  0  0  0  0
  -25.5540   16.5463   31.4537 O   0  0  0  0  0  0  0  0  0  0  0  0
  -23.6003   12.6731   30.9867 C   0  0  0  0  0  0  0  0  0  0  0  0
  -23.5772   12.3102   31.9849 H   0  0  0  0  0  0  0  0  0  0  0  0
  -22.7209   12.1555   30.0387 C   0  0  0  0  0  0  0  0  0  0  0  0
  -22.0355   11.3979   30.3163 H   0  0  0  0  0  0  0  0  0  0  0  0
  1  2  1  0
  2  3  1  0
  2 20  2  0
  3  4  1  0
  3  5  2  0
  5  6  1  0
  5 11  1  0
  6  7  1  0
  7  8  1  0
  7  9  1  0
  7 10  1  0
 11 12  1  0
 11 18  2  0
 12 13  1  0
 12 14  1  0
 12 15  1  0
 15 16  1  0
 15 17  2  0
 18 19  1  0
 18 20  1  0
 20 21  1  0
M  END
$$$$
