F95_22
     RDKit          3D

 27 27  0  0  0  0  0  0  0  0999 V2000
  -19.6053   12.2406   27.3518 S   0  0  0  0  0  0  0  0  0  0  0  0
  -19.2031   13.3489   26.5137 O   0  0  0  0  0  0  0  0  0  0  0  0
  -18.9030   11.9095   28.5723 O   0  0  0  0  0  0  0  0  0  0  0  0
  -19.5925   10.8597   26.3843 N   0  0  0  0  0  0  0  0  0  0  0  0
  -18.7498   10.7983   25.8081 H   0  0  0  0  0  0  0  0  0  0  0  0
  -20.4618   10.7494   25.8564 H   0  0  0  0  0  0  0  0  0  0  0  0
  -21.3171   12.4008   27.7146 C   0  0  0  0  0  0  0  0  0  0  0  0
  -22.2267   12.7580   26.7149 C   0  0  0  0  0  0  0  0  0  0  0  0
  -21.8815   12.9028   25.7203 H   0  0  0  0  0  0  0  0  0  0  0  0
  -23.5732   12.9348   27.0117 C   0  0  0  0  0  0  0  0  0  0  0  0
  -24.2492   13.2104   26.2417 H   0  0  0  0  0  0  0  0  0  0  0  0
  -24.0339   12.7618   28.3154 C   0  0  0  0  0  0  0  0  0  0  0  0
  -25.4767   13.0222   28.6502 C   0  0  0  0  0  0  0  0  0  0  0  0
  -25.9982   12.0862   28.8853 H   0  0  0  0  0  0  0  0  0  0  0  0
  -26.0006   13.4745   27.7992 H   0  0  0  0  0  0  0  0  0  0  0  0
  -25.5810   13.9137   29.7853 N   0  0  0  0  0  0  0  0  0  0  0  0
  -25.4844   14.8996   29.6130 H   0  0  0  0  0  0  0  0  0  0  0  0
  -25.7955   13.4732   31.0174 C   0  0  0  0  0  0  0  0  0  0  0  0
  -25.9200   12.2839   31.2693 O   0  0  0  0  0  0  0  0  0  0  0  0
  -25.8869   14.5397   32.0709 C   0  0  0  0  0  0  0  0  0  0  0  0
  -25.0122   15.1944   32.0189 H   0  0  0  0  0  0  0  0  0  0  0  0
  -26.7934   15.1318   31.9158 H   0  0  0  0  0  0  0  0  0  0  0  0
  -25.9239   14.0778   33.0612 H   0  0  0  0  0  0  0  0  0  0  0  0
  -23.1321   12.4162   29.3188 C   0  0  0  0  0  0  0  0  0  0  0  0
  -23.4705   12.2958   30.3175 H   0  0  0  0  0  0  0  0  0  0  0  0
  -21.7845   12.2403   29.0212 C   0  0  0  0  0  0  0  0  0  0  0  0
  -21.1017   11.9891   29.7952 H   0  0  0  0  0  0  0  0  0  0  0  0
  1  2  2  0
  1  3  2  0
  1  4  1  0
  1  7  1  0
  4  5  1  0
  4  6  1  0
  7  8  1  0
  7 26  2  0
  8  9  1  0
  8 10  2  0
 10 11  1  0
 10 12  1  0
 12 13  1  0
 12 24  2  0
 13 14  1  0
 13 15  1  0
 13 16  1  0
 16 17  1  0
 16 18  1  0
 18 19  2  0
 18 20  1  0
 20 21  1  0
 20 22  1  0
 20 23  1  0
 24 25  1  0
 24 26  1  0
 26 27  1  0
M  END
$$$$
