F501_79
     RDKit          3D

 23 24  0  0  0  0  0  0  0  0999 V2000
  -22.4863   11.6053   28.4822 C   0  0  0  0  0  0  0  0  0  0  0  0
  -22.6613   10.7403   29.1272 H   0  0  0  0  0  0  0  0  0  0  0  0
  -21.4143   11.7955   28.3924 H   0  0  0  0  0  0  0  0  0  0  0  0
  -22.9232   11.4179   27.4985 H   0  0  0  0  0  0  0  0  0  0  0  0
  -23.1060   12.7708   29.0513 N   0  0  0  0  0  0  0  0  0  0  0  0
  -23.2973   13.8608   28.2936 N   0  0  0  0  0  0  0  0  0  0  0  0
  -23.8593   14.7780   29.0447 N   0  0  0  0  0  0  0  0  0  0  0  0
  -24.0178   14.2418   30.2723 C   0  0  0  0  0  0  0  0  0  0  0  0
  -23.5588   12.9802   30.2885 C   0  0  0  0  0  0  0  0  0  0  0  0
  -23.5752   12.0440   31.4428 C   0  0  0  0  0  0  0  0  0  0  0  0
  -24.3693   11.3062   31.2703 H   0  0  0  0  0  0  0  0  0  0  0  0
  -22.6340   11.4889   31.5018 H   0  0  0  0  0  0  0  0  0  0  0  0
  -23.8911   12.8124   32.7493 C   0  0  0  0  0  0  0  0  0  0  0  0
  -22.6042   13.3211   33.4066 C   0  0  0  0  0  0  0  0  0  0  0  0
  -22.5002   14.5565   33.5751 O   0  0  0  0  0  0  0  0  0  0  0  0
  -21.7239   12.4817   33.6942 O   0  0  0  0  0  0  0  0  0  0  0  0
  -24.9663   13.9102   32.5391 C   0  0  0  0  0  0  0  0  0  0  0  0
  -25.9038   13.4151   32.2502 H   0  0  0  0  0  0  0  0  0  0  0  0
  -25.1744   14.4404   33.4759 H   0  0  0  0  0  0  0  0  0  0  0  0
  -24.5945   14.9355   31.4445 C   0  0  0  0  0  0  0  0  0  0  0  0
  -23.8639   15.6546   31.8319 H   0  0  0  0  0  0  0  0  0  0  0  0
  -25.4868   15.5017   31.1540 H   0  0  0  0  0  0  0  0  0  0  0  0
  -24.2957   12.0874   33.4690 H   0  0  0  0  0  0  0  0  0  0  0  0
  1  2  1  0
  1  3  1  0
  1  4  1  0
  1  5  1  0
  5  6  1  0
  5  9  1  0
  6  7  2  0
  7  8  1  0
  8  9  2  0
  8 20  1  0
  9 10  1  0
 10 11  1  0
 10 12  1  0
 10 13  1  0
 13 14  1  0
 13 17  1  0
 13 23  1  0
 14 15  1  0
 14 16  2  0
 17 18  1  0
 17 19  1  0
 17 20  1  0
 20 21  1  0
 20 22  1  0
M  END
$$$$
