F389_34
     RDKit          3D

 18 18  0  0  0  0  0  0  0  0999 V2000
  -25.9303   12.8270   30.8377 O   0  0  0  0  0  0  0  0  0  0  0  0
  -25.0805   12.4828   30.0288 C   0  0  0  0  0  0  0  0  0  0  0  0
  -24.0200   11.6694   30.3128 O   0  0  0  0  0  0  0  0  0  0  0  0
  -23.9094   11.2188   31.6719 C   0  0  0  0  0  0  0  0  0  0  0  0
  -24.8077   10.6308   31.8882 H   0  0  0  0  0  0  0  0  0  0  0  0
  -23.8999   12.0626   32.3708 H   0  0  0  0  0  0  0  0  0  0  0  0
  -22.6781   10.3487   31.8338 C   0  0  0  0  0  0  0  0  0  0  0  0
  -21.7660   10.9158   31.6224 H   0  0  0  0  0  0  0  0  0  0  0  0
  -22.7023    9.5120   31.1281 H   0  0  0  0  0  0  0  0  0  0  0  0
  -22.6151    9.9509   32.8506 H   0  0  0  0  0  0  0  0  0  0  0  0
  -25.0985   12.9115   28.6421 C   0  0  0  0  0  0  0  0  0  0  0  0
  -24.3187   12.4516   27.6220 C   0  0  0  0  0  0  0  0  0  0  0  0
  -23.5578   11.7148   27.5949 H   0  0  0  0  0  0  0  0  0  0  0  0
  -24.6937   13.1419   26.5323 N   0  0  0  0  0  0  0  0  0  0  0  0
  -24.2876   13.0271   25.5828 H   0  0  0  0  0  0  0  0  0  0  0  0
  -25.6864   14.0314   26.8070 N   0  0  0  0  0  0  0  0  0  0  0  0
  -25.9241   13.8866   28.0803 C   0  0  0  0  0  0  0  0  0  0  0  0
  -26.6563   14.4468   28.6057 H   0  0  0  0  0  0  0  0  0  0  0  0
  1  2  2  0
  2  3  1  0
  2 11  1  0
  3  4  1  0
  4  5  1  0
  4  6  1  0
  4  7  1  0
  7  8  1  0
  7  9  1  0
  7 10  1  0
 11 12  2  0
 11 17  1  0
 12 13  1  0
 12 14  1  0
 14 15  1  0
 14 16  1  0
 16 17  2  0
 17 18  1  0
M  END
$$$$
