F579_37
     RDKit          3D

 29 31  0  0  0  0  0  0  0  0999 V2000
  -25.3685   13.1407   27.9770 O   0  0  0  0  0  0  0  0  0  0  0  0
  -24.9913   13.0380   29.1228 C   0  0  0  0  0  0  0  0  0  0  0  0
  -23.6832   12.8186   29.4301 N   0  0  0  0  0  0  0  0  0  0  0  0
  -23.4574   12.7227   30.4237 H   0  0  0  0  0  0  0  0  0  0  0  0
  -22.5917   12.6953   28.6025 C   0  0  0  0  0  0  0  0  0  0  0  0
  -22.7200   12.8719   26.8792 S   0  0  0  0  0  0  0  0  0  0  0  0
  -21.0178   12.5838   26.7765 C   0  0  0  0  0  0  0  0  0  0  0  0
  -20.5015   12.3794   28.0554 C   0  0  0  0  0  0  0  0  0  0  0  0
  -21.4195   12.4473   29.0961 N   0  0  0  0  0  0  0  0  0  0  0  0
  -19.1272   12.1274   28.2005 C   0  0  0  0  0  0  0  0  0  0  0  0
  -18.7298   11.9705   29.1688 H   0  0  0  0  0  0  0  0  0  0  0  0
  -18.3074   12.0847   27.0819 C   0  0  0  0  0  0  0  0  0  0  0  0
  -17.2722   11.8949   27.1956 H   0  0  0  0  0  0  0  0  0  0  0  0
  -18.8583   12.2968   25.7980 C   0  0  0  0  0  0  0  0  0  0  0  0
  -18.1484   12.2802   24.6232 O   0  0  0  0  0  0  0  0  0  0  0  0
  -17.9027   13.5311   23.9914 C   0  0  0  0  0  0  0  0  0  0  0  0
  -17.2952   14.1823   24.6289 H   0  0  0  0  0  0  0  0  0  0  0  0
  -17.3339   13.3377   23.0769 H   0  0  0  0  0  0  0  0  0  0  0  0
  -18.8396   14.0190   23.7033 H   0  0  0  0  0  0  0  0  0  0  0  0
  -20.2083   12.5465   25.6332 C   0  0  0  0  0  0  0  0  0  0  0  0
  -20.6188   12.7033   24.6700 H   0  0  0  0  0  0  0  0  0  0  0  0
  -25.9129   13.1611   30.2735 C   0  0  0  0  0  0  0  0  0  0  0  0
  -26.0281   12.2390   30.8369 H   0  0  0  0  0  0  0  0  0  0  0  0
  -27.0990   14.0950   30.2250 C   0  0  0  0  0  0  0  0  0  0  0  0
  -27.2578   14.7087   29.3453 H   0  0  0  0  0  0  0  0  0  0  0  0
  -28.0120   13.7795   30.7152 H   0  0  0  0  0  0  0  0  0  0  0  0
  -25.9208   14.4298   31.0913 C   0  0  0  0  0  0  0  0  0  0  0  0
  -26.0338   14.3382   32.1647 H   0  0  0  0  0  0  0  0  0  0  0  0
  -25.2763   15.2460   30.7820 H   0  0  0  0  0  0  0  0  0  0  0  0
  1  2  2  0
  2  3  1  0
  2 22  1  0
  3  4  1  0
  3  5  1  0
  5  6  1  0
  5  9  2  0
  6  7  1  0
  7  8  1  0
  7 20  2  0
  8  9  1  0
  8 10  2  0
 10 11  1  0
 10 12  1  0
 12 13  1  0
 12 14  2  0
 14 15  1  0
 14 20  1  0
 15 16  1  0
 16 17  1  0
 16 18  1  0
 16 19  1  0
 20 21  1  0
 22 23  1  0
 22 24  1  0
 22 27  1  0
 24 25  1  0
 24 26  1  0
 24 27  1  0
 27 28  1  0
 27 29  1  0
M  END
$$$$
