F5_77
     RDKit          3D

 21 21  0  0  0  0  0  0  0  0999 V2000
  -21.5712   11.9421   27.3649 Br  0  0  0  0  0  0  0  0  0  0  0  0
  -22.7441   12.5881   28.7020 C   0  0  0  0  0  0  0  0  0  0  0  0
  -23.6605   13.5898   28.4009 C   0  0  0  0  0  0  0  0  0  0  0  0
  -23.7107   14.0010   27.4287 H   0  0  0  0  0  0  0  0  0  0  0  0
  -24.5151   14.0585   29.3942 C   0  0  0  0  0  0  0  0  0  0  0  0
  -25.3847   15.0608   29.0513 O   0  0  0  0  0  0  0  0  0  0  0  0
  -26.5385   14.6872   28.2599 C   0  0  0  0  0  0  0  0  0  0  0  0
  -27.0223   15.5993   27.9144 H   0  0  0  0  0  0  0  0  0  0  0  0
  -27.2092   14.1046   28.8898 H   0  0  0  0  0  0  0  0  0  0  0  0
  -26.2082   14.0900   27.4105 H   0  0  0  0  0  0  0  0  0  0  0  0
  -24.4854   13.5306   30.6925 C   0  0  0  0  0  0  0  0  0  0  0  0
  -25.4356   13.9932   31.7976 C   0  0  0  0  0  0  0  0  0  0  0  0
  -25.8629   13.1266   32.2776 H   0  0  0  0  0  0  0  0  0  0  0  0
  -26.1898   14.6597   31.4136 H   0  0  0  0  0  0  0  0  0  0  0  0
  -24.6428   14.7440   32.8436 C   0  0  0  0  0  0  0  0  0  0  0  0
  -24.0702   14.0678   33.7280 O   0  0  0  0  0  0  0  0  0  0  0  0
  -24.6471   15.9943   32.7952 O   0  0  0  0  0  0  0  0  0  0  0  0
  -23.5551   12.5325   30.9773 C   0  0  0  0  0  0  0  0  0  0  0  0
  -23.5036   12.1351   31.9612 H   0  0  0  0  0  0  0  0  0  0  0  0
  -22.6897   12.0630   29.9922 C   0  0  0  0  0  0  0  0  0  0  0  0
  -21.9866   11.3073   30.2273 H   0  0  0  0  0  0  0  0  0  0  0  0
  1  2  1  0
  2  3  1  0
  2 20  2  0
  3  4  1  0
  3  5  2  0
  5  6  1  0
  5 11  1  0
  6  7  1  0
  7  8  1  0
  7  9  1  0
  7 10  1  0
 11 12  1  0
 11 18  2  0
 12 13  1  0
 12 14  1  0
 12 15  1  0
 15 16  1  0
 15 17  2  0
 18 19  1  0
 18 20  1  0
 20 21  1  0
M  END
$$$$
