F763_71
     RDKit          3D

 19 19  0  0  0  0  0  0  0  0999 V2000
  -23.2242   12.9166   27.2009 Br  0  0  0  0  0  0  0  0  0  0  0  0
  -23.2144   12.2506   28.9485 C   0  0  0  0  0  0  0  0  0  0  0  0
  -22.9629   10.9357   29.1957 C   0  0  0  0  0  0  0  0  0  0  0  0
  -22.7678   10.2537   28.4124 H   0  0  0  0  0  0  0  0  0  0  0  0
  -22.9584   10.4302   30.5310 C   0  0  0  0  0  0  0  0  0  0  0  0
  -22.7571    9.2441   30.8219 O   0  0  0  0  0  0  0  0  0  0  0  0
  -23.2063   11.3325   31.5703 N   0  0  0  0  0  0  0  0  0  0  0  0
  -23.2045   10.8612   32.9564 C   0  0  0  0  0  0  0  0  0  0  0  0
  -23.9872   11.3849   33.5189 H   0  0  0  0  0  0  0  0  0  0  0  0
  -23.4789    9.7988   32.9914 H   0  0  0  0  0  0  0  0  0  0  0  0
  -21.8568   11.0837   33.6404 C   0  0  0  0  0  0  0  0  0  0  0  0
  -21.0413   10.5947   33.0977 H   0  0  0  0  0  0  0  0  0  0  0  0
  -21.8709   10.6740   34.6559 H   0  0  0  0  0  0  0  0  0  0  0  0
  -21.5717   12.4746   33.7323 O   0  0  0  0  0  0  0  0  0  0  0  0
  -20.7107   12.5656   34.1787 H   0  0  0  0  0  0  0  0  0  0  0  0
  -23.4685   12.6742   31.3160 C   0  0  0  0  0  0  0  0  0  0  0  0
  -23.6542   13.2809   32.1684 H   0  0  0  0  0  0  0  0  0  0  0  0
  -23.4737   13.1355   30.0325 C   0  0  0  0  0  0  0  0  0  0  0  0
  -23.6717   14.1566   29.8287 H   0  0  0  0  0  0  0  0  0  0  0  0
  1  2  1  0
  2  3  2  0
  2 18  1  0
  3  4  1  0
  3  5  1  0
  5  6  2  0
  5  7  1  0
  7  8  1  0
  7 16  1  0
  8  9  1  0
  8 10  1  0
  8 11  1  0
 11 12  1  0
 11 13  1  0
 11 14  1  0
 14 15  1  0
 16 17  1  0
 16 18  2  0
 18 19  1  0
M  END
$$$$
