F393_11
     RDKit          3D

 24 24  0  0  0  0  0  0  0  0999 V2000
  -25.5811   15.6716   27.4145 O   0  0  0  0  0  0  0  0  0  0  0  0
  -24.9603   15.3229   28.4109 C   0  0  0  0  0  0  0  0  0  0  0  0
  -24.4784   16.1797   29.3517 O   0  0  0  0  0  0  0  0  0  0  0  0
  -24.7829   17.5609   29.1199 C   0  0  0  0  0  0  0  0  0  0  0  0
  -24.3913   17.8665   28.1438 H   0  0  0  0  0  0  0  0  0  0  0  0
  -25.8682   17.7082   29.1463 H   0  0  0  0  0  0  0  0  0  0  0  0
  -24.1270   18.3795   30.2146 C   0  0  0  0  0  0  0  0  0  0  0  0
  -23.0428   18.2232   30.2166 H   0  0  0  0  0  0  0  0  0  0  0  0
  -24.4956   18.0706   31.1987 H   0  0  0  0  0  0  0  0  0  0  0  0
  -24.3301   19.4458   30.0799 H   0  0  0  0  0  0  0  0  0  0  0  0
  -24.6847   14.0081   28.6846 N   0  0  0  0  0  0  0  0  0  0  0  0
  -25.1388   12.9396   27.7953 C   0  0  0  0  0  0  0  0  0  0  0  0
  -25.9283   12.4032   28.3343 H   0  0  0  0  0  0  0  0  0  0  0  0
  -25.5699   13.3424   26.8731 H   0  0  0  0  0  0  0  0  0  0  0  0
  -23.9889   11.9853   27.4727 C   0  0  0  0  0  0  0  0  0  0  0  0
  -23.2204   12.4811   26.8671 H   0  0  0  0  0  0  0  0  0  0  0  0
  -24.3618   11.1262   26.9058 H   0  0  0  0  0  0  0  0  0  0  0  0
  -23.3855   11.4871   28.6757 O   0  0  0  0  0  0  0  0  0  0  0  0
  -22.8520   12.5637   29.4615 C   0  0  0  0  0  0  0  0  0  0  0  0
  -22.3905   12.1290   30.3537 H   0  0  0  0  0  0  0  0  0  0  0  0
  -22.0650   13.0676   28.8868 H   0  0  0  0  0  0  0  0  0  0  0  0
  -23.9537   13.5444   29.8660 C   0  0  0  0  0  0  0  0  0  0  0  0
  -23.5271   14.3752   30.4347 H   0  0  0  0  0  0  0  0  0  0  0  0
  -24.6878   13.0384   30.5034 H   0  0  0  0  0  0  0  0  0  0  0  0
  1  2  2  0
  2  3  1  0
  2 11  1  0
  3  4  1  0
  4  5  1  0
  4  6  1  0
  4  7  1  0
  7  8  1  0
  7  9  1  0
  7 10  1  0
 11 12  1  0
 11 22  1  0
 12 13  1  0
 12 14  1  0
 12 15  1  0
 15 16  1  0
 15 17  1  0
 15 18  1  0
 18 19  1  0
 19 20  1  0
 19 21  1  0
 19 22  1  0
 22 23  1  0
 22 24  1  0
M  END
$$$$
