F13_38
     RDKit          3D

 16 16  0  0  0  0  0  0  0  0999 V2000
  -26.5436   14.7918   27.9500 Br  0  0  0  0  0  0  0  0  0  0  0  0
  -24.8192   14.1928   28.3423 C   0  0  0  0  0  0  0  0  0  0  0  0
  -24.2016   13.0835   27.8857 C   0  0  0  0  0  0  0  0  0  0  0  0
  -24.5185   12.3212   27.2234 H   0  0  0  0  0  0  0  0  0  0  0  0
  -22.9727   13.0896   28.4517 N   0  0  0  0  0  0  0  0  0  0  0  0
  -21.9132   12.1121   28.2992 C   0  0  0  0  0  0  0  0  0  0  0  0
  -21.6494   11.7674   29.3052 H   0  0  0  0  0  0  0  0  0  0  0  0
  -22.3283   11.2676   27.7380 H   0  0  0  0  0  0  0  0  0  0  0  0
  -20.6981   12.6988   27.5982 C   0  0  0  0  0  0  0  0  0  0  0  0
  -19.9183   11.9371   27.5091 H   0  0  0  0  0  0  0  0  0  0  0  0
  -20.2909   13.5613   28.1363 H   0  0  0  0  0  0  0  0  0  0  0  0
  -21.0514   13.1063   26.2799 O   0  0  0  0  0  0  0  0  0  0  0  0
  -21.3768   12.3166   25.8130 H   0  0  0  0  0  0  0  0  0  0  0  0
  -22.7876   14.1751   29.2520 N   0  0  0  0  0  0  0  0  0  0  0  0
  -23.9141   14.8354   29.1798 C   0  0  0  0  0  0  0  0  0  0  0  0
  -24.0944   15.7414   29.6986 H   0  0  0  0  0  0  0  0  0  0  0  0
  1  2  1  0
  2  3  2  0
  2 15  1  0
  3  4  1  0
  3  5  1  0
  5  6  1  0
  5 14  1  0
  6  7  1  0
  6  8  1  0
  6  9  1  0
  9 10  1  0
  9 11  1  0
  9 12  1  0
 12 13  1  0
 14 15  2  0
 15 16  1  0
M  END
$$$$
