F535_70
     RDKit          3D

 23 24  0  0  0  0  0  0  0  0999 V2000
  -23.5805   16.4599   30.4208 N   0  0  0  0  0  0  0  0  0  0  0  0
  -22.6335   16.5203   30.0165 H   0  0  0  0  0  0  0  0  0  0  0  0
  -24.2050   16.4953   29.6027 H   0  0  0  0  0  0  0  0  0  0  0  0
  -23.7257   15.1099   31.0567 C   0  0  0  0  0  0  0  0  0  0  0  0
  -23.0177   15.0746   31.8898 H   0  0  0  0  0  0  0  0  0  0  0  0
  -24.7517   15.0476   31.4353 H   0  0  0  0  0  0  0  0  0  0  0  0
  -23.4548   14.0313   30.0793 C   0  0  0  0  0  0  0  0  0  0  0  0
  -23.3206   12.7308   30.3708 N   0  0  0  0  0  0  0  0  0  0  0  0
  -23.0787   12.0967   29.2005 C   0  0  0  0  0  0  0  0  0  0  0  0
  -23.0727   12.9855   28.2336 N   0  0  0  0  0  0  0  0  0  0  0  0
  -23.3135   14.1974   28.7954 N   0  0  0  0  0  0  0  0  0  0  0  0
  -22.8875   10.6826   29.2108 C   0  0  0  0  0  0  0  0  0  0  0  0
  -22.6960   10.1849   28.2950 H   0  0  0  0  0  0  0  0  0  0  0  0
  -22.9525    9.9969   30.3898 C   0  0  0  0  0  0  0  0  0  0  0  0
  -22.8119    8.9454   30.4138 H   0  0  0  0  0  0  0  0  0  0  0  0
  -23.2133   10.7011   31.6069 C   0  0  0  0  0  0  0  0  0  0  0  0
  -23.2624   10.1518   32.5146 H   0  0  0  0  0  0  0  0  0  0  0  0
  -23.3960   12.0563   31.6021 C   0  0  0  0  0  0  0  0  0  0  0  0
  -23.5931   12.6528   32.4539 H   0  0  0  0  0  0  0  0  0  0  0  0
  -23.8330   17.6137   31.3155 C   0  0  0  0  0  0  0  0  0  0  0  0
  -23.1176   17.5737   32.1394 H   0  0  0  0  0  0  0  0  0  0  0  0
  -24.8614   17.5483   31.6781 H   0  0  0  0  0  0  0  0  0  0  0  0
  -23.6914   18.5231   30.7270 H   0  0  0  0  0  0  0  0  0  0  0  0
  1  2  1  0
  1  3  1  0
  1  4  1  0
  1 20  1  0
  4  5  1  0
  4  6  1  0
  4  7  1  0
  7  8  1  0
  7 11  2  0
  8  9  1  0
  8 18  1  0
  9 10  2  0
  9 12  1  0
 10 11  1  0
 12 13  1  0
 12 14  2  0
 14 15  1  0
 14 16  1  0
 16 17  1  0
 16 18  2  0
 18 19  1  0
 20 21  1  0
 20 22  1  0
 20 23  1  0
M  END
$$$$
