F96_60
     RDKit          3D

 19 19  0  0  0  0  0  0  0  0999 V2000
  -20.2367   12.7952   28.5694 O   0  0  0  0  0  0  0  0  0  0  0  0
  -20.3171   12.2872   27.4602 C   0  0  0  0  0  0  0  0  0  0  0  0
  -21.3570   11.5515   27.0938 N   0  0  0  0  0  0  0  0  0  0  0  0
  -21.3867   11.1386   26.1775 H   0  0  0  0  0  0  0  0  0  0  0  0
  -22.4750   11.3054   27.9798 C   0  0  0  0  0  0  0  0  0  0  0  0
  -22.9147   10.3355   27.7233 H   0  0  0  0  0  0  0  0  0  0  0  0
  -22.1035   11.2456   29.0085 H   0  0  0  0  0  0  0  0  0  0  0  0
  -23.4647   12.4035   27.8246 C   0  0  0  0  0  0  0  0  0  0  0  0
  -24.6036   12.3813   27.0928 C   0  0  0  0  0  0  0  0  0  0  0  0
  -25.0400   11.6269   26.4899 H   0  0  0  0  0  0  0  0  0  0  0  0
  -25.1704   13.5954   27.2597 N   0  0  0  0  0  0  0  0  0  0  0  0
  -26.0632   13.9037   26.8314 H   0  0  0  0  0  0  0  0  0  0  0  0
  -24.4271   14.3954   28.0678 N   0  0  0  0  0  0  0  0  0  0  0  0
  -23.3996   13.6660   28.4057 C   0  0  0  0  0  0  0  0  0  0  0  0
  -22.6237   14.0146   29.0404 H   0  0  0  0  0  0  0  0  0  0  0  0
  -19.2284   12.4311   26.4333 C   0  0  0  0  0  0  0  0  0  0  0  0
  -19.6237   12.3219   25.4195 H   0  0  0  0  0  0  0  0  0  0  0  0
  -18.4695   11.6644   26.6068 H   0  0  0  0  0  0  0  0  0  0  0  0
  -18.7742   13.4218   26.5227 H   0  0  0  0  0  0  0  0  0  0  0  0
  1  2  2  0
  2  3  1  0
  2 16  1  0
  3  4  1  0
  3  5  1  0
  5  6  1  0
  5  7  1  0
  5  8  1  0
  8  9  2  0
  8 14  1  0
  9 10  1  0
  9 11  1  0
 11 12  1  0
 11 13  1  0
 13 14  2  0
 14 15  1  0
 16 17  1  0
 16 18  1  0
 16 19  1  0
M  END
$$$$
