F666_71
     RDKit          3D

 35 37  0  0  0  0  0  0  0  0999 V2000
  -17.9632   13.3154   23.8869 F   0  0  0  0  0  0  0  0  0  0  0  0
  -18.8760   13.2307   24.8651 C   0  0  0  0  0  0  0  0  0  0  0  0
  -19.6765   12.0977   24.9401 C   0  0  0  0  0  0  0  0  0  0  0  0
  -19.5608   11.3182   24.2329 H   0  0  0  0  0  0  0  0  0  0  0  0
  -20.6255   12.0088   25.9542 C   0  0  0  0  0  0  0  0  0  0  0  0
  -21.2347   11.1499   26.0141 H   0  0  0  0  0  0  0  0  0  0  0  0
  -20.7692   13.0613   26.8761 C   0  0  0  0  0  0  0  0  0  0  0  0
  -21.7267   12.9859   27.8798 N   0  0  0  0  0  0  0  0  0  0  0  0
  -21.4344   12.4445   29.2156 C   0  0  0  0  0  0  0  0  0  0  0  0
  -20.4248   12.0308   29.3034 H   0  0  0  0  0  0  0  0  0  0  0  0
  -21.4932   13.2705   29.9353 H   0  0  0  0  0  0  0  0  0  0  0  0
  -22.4669   11.3710   29.5951 C   0  0  0  0  0  0  0  0  0  0  0  0
  -22.2874   11.0325   30.6181 H   0  0  0  0  0  0  0  0  0  0  0  0
  -22.3609   10.5001   28.9379 H   0  0  0  0  0  0  0  0  0  0  0  0
  -23.8375   11.8715   29.4225 N   0  0  0  0  0  0  0  0  0  0  0  0
  -24.8072   11.8593   30.3972 C   0  0  0  0  0  0  0  0  0  0  0  0
  -25.9127   12.2925   30.1288 O   0  0  0  0  0  0  0  0  0  0  0  0
  -24.4891   11.3196   31.7382 C   0  0  0  0  0  0  0  0  0  0  0  0
  -24.4201   10.2366   31.7732 H   0  0  0  0  0  0  0  0  0  0  0  0
  -25.0697   11.9699   32.9742 C   0  0  0  0  0  0  0  0  0  0  0  0
  -25.6974   12.8450   32.8480 H   0  0  0  0  0  0  0  0  0  0  0  0
  -25.3680   11.3253   33.7919 H   0  0  0  0  0  0  0  0  0  0  0  0
  -23.6069   12.1060   32.6801 C   0  0  0  0  0  0  0  0  0  0  0  0
  -23.2476   13.0793   32.3643 H   0  0  0  0  0  0  0  0  0  0  0  0
  -22.9109   11.5550   33.3012 H   0  0  0  0  0  0  0  0  0  0  0  0
  -24.1159   12.4032   28.0824 C   0  0  0  0  0  0  0  0  0  0  0  0
  -24.0582   11.5565   27.3887 H   0  0  0  0  0  0  0  0  0  0  0  0
  -25.1284   12.8135   28.0149 H   0  0  0  0  0  0  0  0  0  0  0  0
  -23.0971   13.4830   27.6775 C   0  0  0  0  0  0  0  0  0  0  0  0
  -23.2405   14.3813   28.2893 H   0  0  0  0  0  0  0  0  0  0  0  0
  -23.2951   13.7535   26.6345 H   0  0  0  0  0  0  0  0  0  0  0  0
  -19.9315   14.1853   26.7893 C   0  0  0  0  0  0  0  0  0  0  0  0
  -20.0032   14.9584   27.5077 H   0  0  0  0  0  0  0  0  0  0  0  0
  -18.9849   14.2747   25.7731 C   0  0  0  0  0  0  0  0  0  0  0  0
  -18.3493   15.1171   25.6939 H   0  0  0  0  0  0  0  0  0  0  0  0
  1  2  1  0
  2  3  1  0
  2 34  2  0
  3  4  1  0
  3  5  2  0
  5  6  1  0
  5  7  1  0
  7  8  1  0
  7 32  2  0
  8  9  1  0
  8 29  1  0
  9 10  1  0
  9 11  1  0
  9 12  1  0
 12 13  1  0
 12 14  1  0
 12 15  1  0
 15 16  1  0
 15 26  1  0
 16 17  2  0
 16 18  1  0
 18 19  1  0
 18 20  1  0
 18 23  1  0
 20 21  1  0
 20 22  1  0
 20 23  1  0
 23 24  1  0
 23 25  1  0
 26 27  1  0
 26 28  1  0
 26 29  1  0
 29 30  1  0
 29 31  1  0
 32 33  1  0
 32 34  1  0
 34 35  1  0
M  END
$$$$
