F96_63
     RDKit          3D

 19 19  0  0  0  0  0  0  0  0999 V2000
  -19.3029   12.5047   28.6533 O   0  0  0  0  0  0  0  0  0  0  0  0
  -19.7128   12.7774   27.5341 C   0  0  0  0  0  0  0  0  0  0  0  0
  -20.9953   13.0033   27.2871 N   0  0  0  0  0  0  0  0  0  0  0  0
  -21.3009   13.2142   26.3527 H   0  0  0  0  0  0  0  0  0  0  0  0
  -21.9996   12.9512   28.3283 C   0  0  0  0  0  0  0  0  0  0  0  0
  -21.6971   12.1998   29.0658 H   0  0  0  0  0  0  0  0  0  0  0  0
  -22.0359   13.9229   28.8326 H   0  0  0  0  0  0  0  0  0  0  0  0
  -23.3109   12.6091   27.7176 C   0  0  0  0  0  0  0  0  0  0  0  0
  -23.7586   11.3775   27.3772 C   0  0  0  0  0  0  0  0  0  0  0  0
  -23.3141   10.4188   27.4559 H   0  0  0  0  0  0  0  0  0  0  0  0
  -24.9940   11.5651   26.8655 N   0  0  0  0  0  0  0  0  0  0  0  0
  -25.6158   10.8145   26.5109 H   0  0  0  0  0  0  0  0  0  0  0  0
  -25.3472   12.8768   26.8604 N   0  0  0  0  0  0  0  0  0  0  0  0
  -24.3248   13.4996   27.3788 C   0  0  0  0  0  0  0  0  0  0  0  0
  -24.2922   14.5522   27.5110 H   0  0  0  0  0  0  0  0  0  0  0  0
  -18.7989   12.8483   26.3424 C   0  0  0  0  0  0  0  0  0  0  0  0
  -19.2071   13.5052   25.5692 H   0  0  0  0  0  0  0  0  0  0  0  0
  -18.6710   11.8448   25.9296 H   0  0  0  0  0  0  0  0  0  0  0  0
  -17.8273   13.2421   26.6535 H   0  0  0  0  0  0  0  0  0  0  0  0
  1  2  2  0
  2  3  1  0
  2 16  1  0
  3  4  1  0
  3  5  1  0
  5  6  1  0
  5  7  1  0
  5  8  1  0
  8  9  2  0
  8 14  1  0
  9 10  1  0
  9 11  1  0
 11 12  1  0
 11 13  1  0
 13 14  2  0
 14 15  1  0
 16 17  1  0
 16 18  1  0
 16 19  1  0
M  END
$$$$
