F199_30
     RDKit          3D

 25 26  0  0  0  0  0  0  0  0999 V2000
  -21.9746   11.7841   29.9829 O   0  0  0  0  0  0  0  0  0  0  0  0
  -21.8885   12.4794   28.9730 C   0  0  0  0  0  0  0  0  0  0  0  0
  -22.9782   13.2112   28.5681 N   0  0  0  0  0  0  0  0  0  0  0  0
  -22.8139   13.7624   27.7142 H   0  0  0  0  0  0  0  0  0  0  0  0
  -24.2229   13.2762   29.1682 C   0  0  0  0  0  0  0  0  0  0  0  0
  -25.2026   14.0735   28.6959 C   0  0  0  0  0  0  0  0  0  0  0  0
  -25.2402   14.7384   27.8747 H   0  0  0  0  0  0  0  0  0  0  0  0
  -26.2507   13.8667   29.5312 N   0  0  0  0  0  0  0  0  0  0  0  0
  -27.5560   14.4726   29.4795 C   0  0  0  0  0  0  0  0  0  0  0  0
  -27.5984   15.1767   28.6451 H   0  0  0  0  0  0  0  0  0  0  0  0
  -27.7303   14.9990   30.4213 H   0  0  0  0  0  0  0  0  0  0  0  0
  -28.2977   13.6824   29.3387 H   0  0  0  0  0  0  0  0  0  0  0  0
  -25.9622   12.9684   30.5103 N   0  0  0  0  0  0  0  0  0  0  0  0
  -24.7230   12.6089   30.2857 C   0  0  0  0  0  0  0  0  0  0  0  0
  -24.1973   11.9091   30.8823 H   0  0  0  0  0  0  0  0  0  0  0  0
  -20.7029   12.5987   28.1486 C   0  0  0  0  0  0  0  0  0  0  0  0
  -19.4993   12.3807   28.6168 N   0  0  0  0  0  0  0  0  0  0  0  0
  -18.6465   12.5737   27.6148 O   0  0  0  0  0  0  0  0  0  0  0  0
  -19.3010   12.9167   26.5008 C   0  0  0  0  0  0  0  0  0  0  0  0
  -18.4929   13.1664   25.2969 C   0  0  0  0  0  0  0  0  0  0  0  0
  -19.1255   13.4469   24.4494 H   0  0  0  0  0  0  0  0  0  0  0  0
  -17.9308   12.2693   25.0201 H   0  0  0  0  0  0  0  0  0  0  0  0
  -17.7809   13.9780   25.4732 H   0  0  0  0  0  0  0  0  0  0  0  0
  -20.6063   12.9445   26.7993 C   0  0  0  0  0  0  0  0  0  0  0  0
  -21.4060   13.1792   26.1460 H   0  0  0  0  0  0  0  0  0  0  0  0
  1  2  2  0
  2  3  1  0
  2 16  1  0
  3  4  1  0
  3  5  1  0
  5  6  2  0
  5 14  1  0
  6  7  1  0
  6  8  1  0
  8  9  1  0
  8 13  1  0
  9 10  1  0
  9 11  1  0
  9 12  1  0
 13 14  2  0
 14 15  1  0
 16 17  2  0
 16 24  1  0
 17 18  1  0
 18 19  1  0
 19 20  1  0
 19 24  2  0
 20 21  1  0
 20 22  1  0
 20 23  1  0
 24 25  1  0
M  END
$$$$
