F650_25
     RDKit          3D

 23 24  0  0  0  0  0  0  0  0999 V2000
  -25.5029   14.3940   26.7330 O   0  0  0  0  0  0  0  0  0  0  0  0
  -24.9159   14.2865   27.8052 C   0  0  0  0  0  0  0  0  0  0  0  0
  -24.9941   15.3622   28.6748 N   0  0  0  0  0  0  0  0  0  0  0  0
  -24.3112   15.5356   29.9522 C   0  0  0  0  0  0  0  0  0  0  0  0
  -24.5046   14.7025   30.6290 H   0  0  0  0  0  0  0  0  0  0  0  0
  -23.2362   15.6006   29.7546 H   0  0  0  0  0  0  0  0  0  0  0  0
  -24.8629   16.8384   30.5196 C   0  0  0  0  0  0  0  0  0  0  0  0
  -25.7558   16.6334   31.1232 H   0  0  0  0  0  0  0  0  0  0  0  0
  -24.1396   17.3632   31.1478 H   0  0  0  0  0  0  0  0  0  0  0  0
  -25.2551   17.6220   29.2765 C   0  0  0  0  0  0  0  0  0  0  0  0
  -24.3651   18.0871   28.8358 H   0  0  0  0  0  0  0  0  0  0  0  0
  -25.9903   18.4058   29.4781 H   0  0  0  0  0  0  0  0  0  0  0  0
  -25.7890   16.5394   28.3532 C   0  0  0  0  0  0  0  0  0  0  0  0
  -25.7020   16.8091   27.2969 H   0  0  0  0  0  0  0  0  0  0  0  0
  -26.8367   16.3041   28.5745 H   0  0  0  0  0  0  0  0  0  0  0  0
  -24.1181   13.1222   28.1391 C   0  0  0  0  0  0  0  0  0  0  0  0
  -23.1594   12.5998   27.3225 C   0  0  0  0  0  0  0  0  0  0  0  0
  -22.8081   12.9081   26.3718 H   0  0  0  0  0  0  0  0  0  0  0  0
  -22.6771   11.5209   27.9597 N   0  0  0  0  0  0  0  0  0  0  0  0
  -21.9296   10.8994   27.5951 H   0  0  0  0  0  0  0  0  0  0  0  0
  -23.2904   11.3161   29.1583 N   0  0  0  0  0  0  0  0  0  0  0  0
  -24.1622   12.2793   29.2526 C   0  0  0  0  0  0  0  0  0  0  0  0
  -24.8221   12.3822   30.0760 H   0  0  0  0  0  0  0  0  0  0  0  0
  1  2  2  0
  2  3  1  0
  2 16  1  0
  3  4  1  0
  3 13  1  0
  4  5  1  0
  4  6  1  0
  4  7  1  0
  7  8  1  0
  7  9  1  0
  7 10  1  0
 10 11  1  0
 10 12  1  0
 10 13  1  0
 13 14  1  0
 13 15  1  0
 16 17  2  0
 16 22  1  0
 17 18  1  0
 17 19  1  0
 19 20  1  0
 19 21  1  0
 21 22  2  0
 22 23  1  0
M  END
$$$$
