F503_3
     RDKit          3D

 29 30  0  0  0  0  0  0  0  0999 V2000
  -22.9710    9.9300   28.5912 F   0  0  0  0  0  0  0  0  0  0  0  0
  -22.9347   10.3424   29.8675 C   0  0  0  0  0  0  0  0  0  0  0  0
  -22.9554   11.7102   30.1494 C   0  0  0  0  0  0  0  0  0  0  0  0
  -23.0321   12.7378   29.0486 C   0  0  0  0  0  0  0  0  0  0  0  0
  -22.9055   12.2551   28.0710 H   0  0  0  0  0  0  0  0  0  0  0  0
  -22.1660   13.4060   29.1484 H   0  0  0  0  0  0  0  0  0  0  0  0
  -24.3222   13.5511   29.0533 C   0  0  0  0  0  0  0  0  0  0  0  0
  -24.5020   14.4885   30.2048 C   0  0  0  0  0  0  0  0  0  0  0  0
  -25.4358   14.4297   30.9790 O   0  0  0  0  0  0  0  0  0  0  0  0
  -23.5655   15.4571   30.3556 N   0  0  0  0  0  0  0  0  0  0  0  0
  -22.8297   15.5094   29.6651 H   0  0  0  0  0  0  0  0  0  0  0  0
  -23.5865   16.4132   31.4334 C   0  0  0  0  0  0  0  0  0  0  0  0
  -24.4716   17.0465   31.3315 H   0  0  0  0  0  0  0  0  0  0  0  0
  -23.6242   15.8845   32.3891 H   0  0  0  0  0  0  0  0  0  0  0  0
  -22.6813   17.0231   31.3786 H   0  0  0  0  0  0  0  0  0  0  0  0
  -25.5953   13.0162   28.3906 C   0  0  0  0  0  0  0  0  0  0  0  0
  -26.5540   13.3114   28.8075 H   0  0  0  0  0  0  0  0  0  0  0  0
  -25.6094   12.0254   27.9534 H   0  0  0  0  0  0  0  0  0  0  0  0
  -24.7949   14.0616   27.6901 C   0  0  0  0  0  0  0  0  0  0  0  0
  -25.2070   15.0630   27.6297 H   0  0  0  0  0  0  0  0  0  0  0  0
  -24.2501   13.7654   26.8008 H   0  0  0  0  0  0  0  0  0  0  0  0
  -22.9042   12.1023   31.4875 C   0  0  0  0  0  0  0  0  0  0  0  0
  -22.9139   13.1309   31.7423 H   0  0  0  0  0  0  0  0  0  0  0  0
  -22.8355   11.1459   32.5013 C   0  0  0  0  0  0  0  0  0  0  0  0
  -22.7970   11.4559   33.5161 H   0  0  0  0  0  0  0  0  0  0  0  0
  -22.8181    9.7859   32.1937 C   0  0  0  0  0  0  0  0  0  0  0  0
  -22.7658    9.0656   32.9707 H   0  0  0  0  0  0  0  0  0  0  0  0
  -22.8675    9.3776   30.8650 C   0  0  0  0  0  0  0  0  0  0  0  0
  -22.8543    8.3496   30.6110 H   0  0  0  0  0  0  0  0  0  0  0  0
  1  2  1  0
  2  3  1  0
  2 28  2  0
  3  4  1  0
  3 22  2  0
  4  5  1  0
  4  6  1  0
  4  7  1  0
  7  8  1  0
  7 16  1  0
  7 19  1  0
  8  9  2  0
  8 10  1  0
 10 11  1  0
 10 12  1  0
 12 13  1  0
 12 14  1  0
 12 15  1  0
 16 17  1  0
 16 18  1  0
 16 19  1  0
 19 20  1  0
 19 21  1  0
 22 23  1  0
 22 24  1  0
 24 25  1  0
 24 26  2  0
 26 27  1  0
 26 28  1  0
 28 29  1  0
M  END
$$$$
