F558_95
     RDKit          3D

 32 33  0  0  0  0  0  0  0  0999 V2000
  -16.3315   16.9301   25.8407 O   0  0  0  0  0  0  0  0  0  0  0  0
  -15.9759   16.5188   26.9352 C   0  0  0  0  0  0  0  0  0  0  0  0
  -14.9239   16.9958   27.6514 O   0  0  0  0  0  0  0  0  0  0  0  0
  -14.2977   18.1489   27.0845 C   0  0  0  0  0  0  0  0  0  0  0  0
  -15.0127   18.9732   27.0055 H   0  0  0  0  0  0  0  0  0  0  0  0
  -13.8728   17.9083   26.1043 H   0  0  0  0  0  0  0  0  0  0  0  0
  -13.4858   18.4542   27.7496 H   0  0  0  0  0  0  0  0  0  0  0  0
  -16.5522   15.4911   27.6165 N   0  0  0  0  0  0  0  0  0  0  0  0
  -16.0630   15.2496   28.4834 H   0  0  0  0  0  0  0  0  0  0  0  0
  -17.6941   14.7284   27.2884 C   0  0  0  0  0  0  0  0  0  0  0  0
  -18.7350   15.2134   26.4930 C   0  0  0  0  0  0  0  0  0  0  0  0
  -18.7057   16.1970   26.1055 H   0  0  0  0  0  0  0  0  0  0  0  0
  -19.8240   14.3933   26.2181 C   0  0  0  0  0  0  0  0  0  0  0  0
  -20.6144   14.7628   25.6156 H   0  0  0  0  0  0  0  0  0  0  0  0
  -19.8862   13.0963   26.7316 C   0  0  0  0  0  0  0  0  0  0  0  0
  -21.0836   12.2180   26.4459 C   0  0  0  0  0  0  0  0  0  0  0  0
  -20.7773   11.1640   26.4815 H   0  0  0  0  0  0  0  0  0  0  0  0
  -21.4215   12.3718   25.4125 H   0  0  0  0  0  0  0  0  0  0  0  0
  -22.2356   12.4496   27.3907 C   0  0  0  0  0  0  0  0  0  0  0  0
  -23.4871   12.8336   26.9238 C   0  0  0  0  0  0  0  0  0  0  0  0
  -23.6621   12.9550   25.8871 H   0  0  0  0  0  0  0  0  0  0  0  0
  -24.5217   13.0619   27.8255 C   0  0  0  0  0  0  0  0  0  0  0  0
  -25.4798   13.3564   27.4772 H   0  0  0  0  0  0  0  0  0  0  0  0
  -24.3527   12.9236   29.1386 N   0  0  0  0  0  0  0  0  0  0  0  0
  -23.1616   12.5591   29.6095 C   0  0  0  0  0  0  0  0  0  0  0  0
  -23.0513   12.4592   30.6603 H   0  0  0  0  0  0  0  0  0  0  0  0
  -22.0830   12.3154   28.7654 C   0  0  0  0  0  0  0  0  0  0  0  0
  -21.1477   12.0331   29.1759 H   0  0  0  0  0  0  0  0  0  0  0  0
  -18.8446   12.6275   27.5361 C   0  0  0  0  0  0  0  0  0  0  0  0
  -18.8812   11.6469   27.9360 H   0  0  0  0  0  0  0  0  0  0  0  0
  -17.7509   13.4393   27.8173 C   0  0  0  0  0  0  0  0  0  0  0  0
  -16.9620   13.0769   28.4241 H   0  0  0  0  0  0  0  0  0  0  0  0
  1  2  2  0
  2  3  1  0
  2  8  1  0
  3  4  1  0
  4  5  1  0
  4  6  1  0
  4  7  1  0
  8  9  1  0
  8 10  1  0
 10 11  1  0
 10 31  2  0
 11 12  1  0
 11 13  2  0
 13 14  1  0
 13 15  1  0
 15 16  1  0
 15 29  2  0
 16 17  1  0
 16 18  1  0
 16 19  1  0
 19 20  1  0
 19 27  2  0
 20 21  1  0
 20 22  2  0
 22 23  1  0
 22 24  1  0
 24 25  2  0
 25 26  1  0
 25 27  1  0
 27 28  1  0
 29 30  1  0
 29 31  1  0
 31 32  1  0
M  END
$$$$
