F367_83
     RDKit          3D

 31 32  0  0  0  0  0  0  0  0999 V2000
  -22.5116   10.7009   27.3698 O   0  0  0  0  0  0  0  0  0  0  0  0
  -21.7609   11.5317   27.8645 C   0  0  0  0  0  0  0  0  0  0  0  0
  -21.9333   11.8044   29.1887 N   0  0  0  0  0  0  0  0  0  0  0  0
  -21.2748   12.4192   29.6815 H   0  0  0  0  0  0  0  0  0  0  0  0
  -23.0122   11.2218   29.9608 C   0  0  0  0  0  0  0  0  0  0  0  0
  -22.6925   11.1510   31.0069 H   0  0  0  0  0  0  0  0  0  0  0  0
  -23.1969   10.2054   29.5950 H   0  0  0  0  0  0  0  0  0  0  0  0
  -24.2228   12.0752   29.8290 C   0  0  0  0  0  0  0  0  0  0  0  0
  -24.5690   12.8450   28.7703 C   0  0  0  0  0  0  0  0  0  0  0  0
  -24.0996   13.0115   27.8371 H   0  0  0  0  0  0  0  0  0  0  0  0
  -25.7341   13.4402   29.1104 N   0  0  0  0  0  0  0  0  0  0  0  0
  -26.5261   14.3654   28.3276 C   0  0  0  0  0  0  0  0  0  0  0  0
  -26.4018   14.1008   27.2717 H   0  0  0  0  0  0  0  0  0  0  0  0
  -27.5769   14.2068   28.5917 H   0  0  0  0  0  0  0  0  0  0  0  0
  -26.1216   15.8096   28.5616 C   0  0  0  0  0  0  0  0  0  0  0  0
  -25.0693   15.9703   28.3030 H   0  0  0  0  0  0  0  0  0  0  0  0
  -26.2532   16.0923   29.6112 H   0  0  0  0  0  0  0  0  0  0  0  0
  -26.7317   16.4795   27.9483 H   0  0  0  0  0  0  0  0  0  0  0  0
  -26.1412   13.0716   30.3513 N   0  0  0  0  0  0  0  0  0  0  0  0
  -25.2219   12.2501   30.7786 C   0  0  0  0  0  0  0  0  0  0  0  0
  -25.2591   11.7839   31.7307 H   0  0  0  0  0  0  0  0  0  0  0  0
  -20.6798   12.1895   27.1059 C   0  0  0  0  0  0  0  0  0  0  0  0
  -20.0129   11.4424   26.1266 C   0  0  0  0  0  0  0  0  0  0  0  0
  -20.2925   10.4322   25.9554 H   0  0  0  0  0  0  0  0  0  0  0  0
  -19.0228   11.9501   25.3899 N   0  0  0  0  0  0  0  0  0  0  0  0
  -18.6440   13.2133   25.5732 C   0  0  0  0  0  0  0  0  0  0  0  0
  -17.8539   13.5882   24.9721 H   0  0  0  0  0  0  0  0  0  0  0  0
  -19.2589   14.0292   26.5191 C   0  0  0  0  0  0  0  0  0  0  0  0
  -18.9399   15.0315   26.6383 H   0  0  0  0  0  0  0  0  0  0  0  0
  -20.2906   13.5212   27.2982 C   0  0  0  0  0  0  0  0  0  0  0  0
  -20.7700   14.1386   28.0123 H   0  0  0  0  0  0  0  0  0  0  0  0
  1  2  2  0
  2  3  1  0
  2 22  1  0
  3  4  1  0
  3  5  1  0
  5  6  1  0
  5  7  1  0
  5  8  1  0
  8  9  2  0
  8 20  1  0
  9 10  1  0
  9 11  1  0
 11 12  1  0
 11 19  1  0
 12 13  1  0
 12 14  1  0
 12 15  1  0
 15 16  1  0
 15 17  1  0
 15 18  1  0
 19 20  2  0
 20 21  1  0
 22 23  1  0
 22 30  2  0
 23 24  1  0
 23 25  2  0
 25 26  1  0
 26 27  1  0
 26 28  2  0
 28 29  1  0
 28 30  1  0
 30 31  1  0
M  END
$$$$
