F535_62
     RDKit          3D

 23 24  0  0  0  0  0  0  0  0999 V2000
  -20.7305   12.7789   26.5724 N   0  0  0  0  0  0  0  0  0  0  0  0
  -20.9800   11.9038   26.0866 H   0  0  0  0  0  0  0  0  0  0  0  0
  -20.6486   13.4714   25.8146 H   0  0  0  0  0  0  0  0  0  0  0  0
  -21.8899   13.1734   27.4373 C   0  0  0  0  0  0  0  0  0  0  0  0
  -21.5479   13.9997   28.0674 H   0  0  0  0  0  0  0  0  0  0  0  0
  -22.6825   13.5193   26.7651 H   0  0  0  0  0  0  0  0  0  0  0  0
  -22.3519   12.0313   28.2584 C   0  0  0  0  0  0  0  0  0  0  0  0
  -22.9248   12.1207   29.4660 N   0  0  0  0  0  0  0  0  0  0  0  0
  -23.1862   10.8541   29.8630 C   0  0  0  0  0  0  0  0  0  0  0  0
  -22.7887   10.0277   28.9227 N   0  0  0  0  0  0  0  0  0  0  0  0
  -22.2693   10.7773   27.9173 N   0  0  0  0  0  0  0  0  0  0  0  0
  -23.8017   10.6443   31.1332 C   0  0  0  0  0  0  0  0  0  0  0  0
  -24.0052    9.6525   31.4463 H   0  0  0  0  0  0  0  0  0  0  0  0
  -24.1160   11.7145   31.9208 C   0  0  0  0  0  0  0  0  0  0  0  0
  -24.5733   11.5747   32.8681 H   0  0  0  0  0  0  0  0  0  0  0  0
  -23.8273   13.0394   31.4661 C   0  0  0  0  0  0  0  0  0  0  0  0
  -24.0803   13.8604   32.0906 H   0  0  0  0  0  0  0  0  0  0  0  0
  -23.2366   13.2453   30.2502 C   0  0  0  0  0  0  0  0  0  0  0  0
  -22.9899   14.1887   29.8387 H   0  0  0  0  0  0  0  0  0  0  0  0
  -19.4360   12.6259   27.2766 C   0  0  0  0  0  0  0  0  0  0  0  0
  -19.5455   11.8463   28.0333 H   0  0  0  0  0  0  0  0  0  0  0  0
  -19.1757   13.5856   27.7290 H   0  0  0  0  0  0  0  0  0  0  0  0
  -18.6893   12.3379   26.5330 H   0  0  0  0  0  0  0  0  0  0  0  0
  1  2  1  0
  1  3  1  0
  1  4  1  0
  1 20  1  0
  4  5  1  0
  4  6  1  0
  4  7  1  0
  7  8  1  0
  7 11  2  0
  8  9  1  0
  8 18  1  0
  9 10  2  0
  9 12  1  0
 10 11  1  0
 12 13  1  0
 12 14  2  0
 14 15  1  0
 14 16  1  0
 16 17  1  0
 16 18  2  0
 18 19  1  0
 20 21  1  0
 20 22  1  0
 20 23  1  0
M  END
$$$$
