F393_18
     RDKit          3D

 24 24  0  0  0  0  0  0  0  0999 V2000
  -25.6219   15.1607   26.9863 O   0  0  0  0  0  0  0  0  0  0  0  0
  -25.2559   14.9293   28.1318 C   0  0  0  0  0  0  0  0  0  0  0  0
  -25.1713   15.8682   29.1131 O   0  0  0  0  0  0  0  0  0  0  0  0
  -25.5935   17.1821   28.7265 C   0  0  0  0  0  0  0  0  0  0  0  0
  -24.9717   17.5413   27.8995 H   0  0  0  0  0  0  0  0  0  0  0  0
  -26.6437   17.1550   28.4159 H   0  0  0  0  0  0  0  0  0  0  0  0
  -25.4357   18.1001   29.9228 C   0  0  0  0  0  0  0  0  0  0  0  0
  -24.3938   18.1184   30.2607 H   0  0  0  0  0  0  0  0  0  0  0  0
  -26.0377   17.7414   30.7646 H   0  0  0  0  0  0  0  0  0  0  0  0
  -25.7450   19.1198   29.6762 H   0  0  0  0  0  0  0  0  0  0  0  0
  -24.8891   13.6760   28.5491 N   0  0  0  0  0  0  0  0  0  0  0  0
  -24.9324   12.5331   27.6377 C   0  0  0  0  0  0  0  0  0  0  0  0
  -25.7585   11.8976   27.9776 H   0  0  0  0  0  0  0  0  0  0  0  0
  -25.1455   12.8476   26.6110 H   0  0  0  0  0  0  0  0  0  0  0  0
  -23.6192   11.7525   27.6935 C   0  0  0  0  0  0  0  0  0  0  0  0
  -22.7894   12.3431   27.2865 H   0  0  0  0  0  0  0  0  0  0  0  0
  -23.7019   10.8356   27.1011 H   0  0  0  0  0  0  0  0  0  0  0  0
  -23.3058   11.3752   29.0422 O   0  0  0  0  0  0  0  0  0  0  0  0
  -23.1597   12.5356   29.8748 C   0  0  0  0  0  0  0  0  0  0  0  0
  -22.9051   12.1934   30.8828 H   0  0  0  0  0  0  0  0  0  0  0  0
  -22.3219   13.1377   29.5020 H   0  0  0  0  0  0  0  0  0  0  0  0
  -24.4531   13.3512   29.9090 C   0  0  0  0  0  0  0  0  0  0  0  0
  -24.3158   14.2480   30.5193 H   0  0  0  0  0  0  0  0  0  0  0  0
  -25.2574   12.7561   30.3564 H   0  0  0  0  0  0  0  0  0  0  0  0
  1  2  2  0
  2  3  1  0
  2 11  1  0
  3  4  1  0
  4  5  1  0
  4  6  1  0
  4  7  1  0
  7  8  1  0
  7  9  1  0
  7 10  1  0
 11 12  1  0
 11 22  1  0
 12 13  1  0
 12 14  1  0
 12 15  1  0
 15 16  1  0
 15 17  1  0
 15 18  1  0
 18 19  1  0
 19 20  1  0
 19 21  1  0
 19 22  1  0
 22 23  1  0
 22 24  1  0
M  END
$$$$
