F710_1
     RDKit          3D

 30 31  0  0  0  0  0  0  0  0999 V2000
  -23.5914   19.1844   29.8855 F   0  0  0  0  0  0  0  0  0  0  0  0
  -22.3660   19.1264   29.3444 C   0  0  0  0  0  0  0  0  0  0  0  0
  -22.2243   19.3406   27.9785 C   0  0  0  0  0  0  0  0  0  0  0  0
  -23.0740   19.5422   27.3800 H   0  0  0  0  0  0  0  0  0  0  0  0
  -20.9528   19.2791   27.4174 C   0  0  0  0  0  0  0  0  0  0  0  0
  -20.8197   19.4190   26.3775 H   0  0  0  0  0  0  0  0  0  0  0  0
  -19.8423   19.0097   28.2294 C   0  0  0  0  0  0  0  0  0  0  0  0
  -18.5727   18.9464   27.6698 N   0  0  0  0  0  0  0  0  0  0  0  0
  -17.8590   17.6742   27.4945 C   0  0  0  0  0  0  0  0  0  0  0  0
  -16.9931   17.6567   28.1673 H   0  0  0  0  0  0  0  0  0  0  0  0
  -18.4834   16.8060   27.7329 H   0  0  0  0  0  0  0  0  0  0  0  0
  -17.3979   17.5376   26.0350 C   0  0  0  0  0  0  0  0  0  0  0  0
  -18.2699   17.4388   25.3771 H   0  0  0  0  0  0  0  0  0  0  0  0
  -16.8023   16.6259   25.9210 H   0  0  0  0  0  0  0  0  0  0  0  0
  -16.6606   18.7218   25.5755 N   0  0  0  0  0  0  0  0  0  0  0  0
  -15.4124   18.5572   25.0399 C   0  0  0  0  0  0  0  0  0  0  0  0
  -14.7893   17.5096   25.0745 O   0  0  0  0  0  0  0  0  0  0  0  0
  -14.8810   19.6244   24.4385 N   0  0  0  0  0  0  0  0  0  0  0  0
  -13.8561   19.6237   24.4025 H   0  0  0  0  0  0  0  0  0  0  0  0
  -15.4006   19.9959   23.6403 H   0  0  0  0  0  0  0  0  0  0  0  0
  -17.3796   19.9926   25.7770 C   0  0  0  0  0  0  0  0  0  0  0  0
  -16.7598   20.8546   25.5221 H   0  0  0  0  0  0  0  0  0  0  0  0
  -18.2430   19.9810   25.1021 H   0  0  0  0  0  0  0  0  0  0  0  0
  -17.8420   20.1445   27.2358 C   0  0  0  0  0  0  0  0  0  0  0  0
  -18.4214   21.0673   27.3461 H   0  0  0  0  0  0  0  0  0  0  0  0
  -16.9621   20.2564   27.8821 H   0  0  0  0  0  0  0  0  0  0  0  0
  -20.0078   18.7918   29.6071 C   0  0  0  0  0  0  0  0  0  0  0  0
  -19.1748   18.5952   30.2266 H   0  0  0  0  0  0  0  0  0  0  0  0
  -21.2801   18.8527   30.1673 C   0  0  0  0  0  0  0  0  0  0  0  0
  -21.4274   18.6960   31.2038 H   0  0  0  0  0  0  0  0  0  0  0  0
  1  2  1  0
  2  3  1  0
  2 29  2  0
  3  4  1  0
  3  5  2  0
  5  6  1  0
  5  7  1  0
  7  8  1  0
  7 27  2  0
  8  9  1  0
  8 24  1  0
  9 10  1  0
  9 11  1  0
  9 12  1  0
 12 13  1  0
 12 14  1  0
 12 15  1  0
 15 16  1  0
 15 21  1  0
 16 17  2  0
 16 18  1  0
 18 19  1  0
 18 20  1  0
 21 22  1  0
 21 23  1  0
 21 24  1  0
 24 25  1  0
 24 26  1  0
 27 28  1  0
 27 29  1  0
 29 30  1  0
M  END
$$$$
