F501_56
     RDKit          3D

 23 24  0  0  0  0  0  0  0  0999 V2000
  -21.4087   12.4668   28.3306 C   0  0  0  0  0  0  0  0  0  0  0  0
  -21.4430   13.4737   27.9064 H   0  0  0  0  0  0  0  0  0  0  0  0
  -21.6139   11.7257   27.5546 H   0  0  0  0  0  0  0  0  0  0  0  0
  -20.4245   12.2930   28.7719 H   0  0  0  0  0  0  0  0  0  0  0  0
  -22.4073   12.3357   29.3561 N   0  0  0  0  0  0  0  0  0  0  0  0
  -22.3418   11.3148   30.2234 N   0  0  0  0  0  0  0  0  0  0  0  0
  -23.3654   11.4139   31.0380 N   0  0  0  0  0  0  0  0  0  0  0  0
  -24.0608   12.5091   30.6684 C   0  0  0  0  0  0  0  0  0  0  0  0
  -23.4663   13.1027   29.6212 C   0  0  0  0  0  0  0  0  0  0  0  0
  -23.9079   14.3457   28.9364 C   0  0  0  0  0  0  0  0  0  0  0  0
  -23.2355   15.1582   29.2406 H   0  0  0  0  0  0  0  0  0  0  0  0
  -23.8105   14.2430   27.8513 H   0  0  0  0  0  0  0  0  0  0  0  0
  -25.3492   14.7104   29.3687 C   0  0  0  0  0  0  0  0  0  0  0  0
  -26.3782   14.0475   28.4473 C   0  0  0  0  0  0  0  0  0  0  0  0
  -26.3674   14.3875   27.2433 O   0  0  0  0  0  0  0  0  0  0  0  0
  -27.1883   13.2447   28.9584 O   0  0  0  0  0  0  0  0  0  0  0  0
  -25.5939   14.4467   30.8772 C   0  0  0  0  0  0  0  0  0  0  0  0
  -24.9335   15.1133   31.4491 H   0  0  0  0  0  0  0  0  0  0  0  0
  -26.6191   14.7120   31.1610 H   0  0  0  0  0  0  0  0  0  0  0  0
  -25.3082   12.9889   31.3025 C   0  0  0  0  0  0  0  0  0  0  0  0
  -26.1371   12.3378   31.0028 H   0  0  0  0  0  0  0  0  0  0  0  0
  -25.2287   12.9341   32.3942 H   0  0  0  0  0  0  0  0  0  0  0  0
  -25.4832   15.7871   29.1957 H   0  0  0  0  0  0  0  0  0  0  0  0
  1  2  1  0
  1  3  1  0
  1  4  1  0
  1  5  1  0
  5  6  1  0
  5  9  1  0
  6  7  2  0
  7  8  1  0
  8  9  2  0
  8 20  1  0
  9 10  1  0
 10 11  1  0
 10 12  1  0
 10 13  1  0
 13 14  1  0
 13 17  1  0
 13 23  1  0
 14 15  1  0
 14 16  2  0
 17 18  1  0
 17 19  1  0
 17 20  1  0
 20 21  1  0
 20 22  1  0
M  END
$$$$
