F503_44
     RDKit          3D

 29 30  0  0  0  0  0  0  0  0999 V2000
  -22.4822   10.1567   27.1335 F   0  0  0  0  0  0  0  0  0  0  0  0
  -21.7894   11.2952   27.2891 C   0  0  0  0  0  0  0  0  0  0  0  0
  -22.3610   12.3577   27.9927 C   0  0  0  0  0  0  0  0  0  0  0  0
  -23.7388   12.2493   28.5959 C   0  0  0  0  0  0  0  0  0  0  0  0
  -24.3203   11.4782   28.0746 H   0  0  0  0  0  0  0  0  0  0  0  0
  -24.2710   13.1890   28.3952 H   0  0  0  0  0  0  0  0  0  0  0  0
  -23.7350   11.9609   30.0935 C   0  0  0  0  0  0  0  0  0  0  0  0
  -24.8400   12.5860   30.8841 C   0  0  0  0  0  0  0  0  0  0  0  0
  -25.7558   11.9556   31.3728 O   0  0  0  0  0  0  0  0  0  0  0  0
  -24.7999   13.9332   31.0303 N   0  0  0  0  0  0  0  0  0  0  0  0
  -24.0527   14.4327   30.5687 H   0  0  0  0  0  0  0  0  0  0  0  0
  -25.7755   14.6734   31.7897 C   0  0  0  0  0  0  0  0  0  0  0  0
  -26.7498   14.5839   31.3023 H   0  0  0  0  0  0  0  0  0  0  0  0
  -25.8351   14.2660   32.8020 H   0  0  0  0  0  0  0  0  0  0  0  0
  -25.4696   15.7219   31.8256 H   0  0  0  0  0  0  0  0  0  0  0  0
  -22.4286   11.6711   30.8386 C   0  0  0  0  0  0  0  0  0  0  0  0
  -22.3570   11.9637   31.8823 H   0  0  0  0  0  0  0  0  0  0  0  0
  -21.4799   11.7192   30.3181 H   0  0  0  0  0  0  0  0  0  0  0  0
  -23.3385   10.5394   30.4988 C   0  0  0  0  0  0  0  0  0  0  0  0
  -23.8829   10.0634   31.3072 H   0  0  0  0  0  0  0  0  0  0  0  0
  -23.0132    9.8461   29.7315 H   0  0  0  0  0  0  0  0  0  0  0  0
  -21.6162   13.5303   28.1240 C   0  0  0  0  0  0  0  0  0  0  0  0
  -22.0166   14.3602   28.6473 H   0  0  0  0  0  0  0  0  0  0  0  0
  -20.3410   13.6229   27.5650 C   0  0  0  0  0  0  0  0  0  0  0  0
  -19.7834   14.5202   27.6713 H   0  0  0  0  0  0  0  0  0  0  0  0
  -19.7917   12.5470   26.8686 C   0  0  0  0  0  0  0  0  0  0  0  0
  -18.8215   12.6261   26.4470 H   0  0  0  0  0  0  0  0  0  0  0  0
  -20.5209   11.3709   26.7274 C   0  0  0  0  0  0  0  0  0  0  0  0
  -20.1216   10.5432   26.2014 H   0  0  0  0  0  0  0  0  0  0  0  0
  1  2  1  0
  2  3  1  0
  2 28  2  0
  3  4  1  0
  3 22  2  0
  4  5  1  0
  4  6  1  0
  4  7  1  0
  7  8  1  0
  7 16  1  0
  7 19  1  0
  8  9  2  0
  8 10  1  0
 10 11  1  0
 10 12  1  0
 12 13  1  0
 12 14  1  0
 12 15  1  0
 16 17  1  0
 16 18  1  0
 16 19  1  0
 19 20  1  0
 19 21  1  0
 22 23  1  0
 22 24  1  0
 24 25  1  0
 24 26  2  0
 26 27  1  0
 26 28  1  0
 28 29  1  0
M  END
$$$$
