F603_88
     RDKit          3D

 24 25  0  0  0  0  0  0  0  0999 V2000
  -19.0522   11.6819   26.1419 S   0  0  0  0  0  0  0  0  0  0  0  0
  -20.0383   10.6286   26.2804 O   0  0  0  0  0  0  0  0  0  0  0  0
  -17.6321   11.3722   26.1137 O   0  0  0  0  0  0  0  0  0  0  0  0
  -19.3165   12.8958   27.4243 C   0  0  0  0  0  0  0  0  0  0  0  0
  -18.6061   12.6922   28.2303 H   0  0  0  0  0  0  0  0  0  0  0  0
  -19.1180   13.8821   26.9962 H   0  0  0  0  0  0  0  0  0  0  0  0
  -20.7133   12.7985   27.9291 C   0  0  0  0  0  0  0  0  0  0  0  0
  -21.8054   13.0912   27.1580 N   0  0  0  0  0  0  0  0  0  0  0  0
  -21.7950   13.4355   26.1874 H   0  0  0  0  0  0  0  0  0  0  0  0
  -22.9178   12.8533   27.8956 C   0  0  0  0  0  0  0  0  0  0  0  0
  -22.4441   12.4124   29.1139 C   0  0  0  0  0  0  0  0  0  0  0  0
  -21.0654   12.3889   29.1024 N   0  0  0  0  0  0  0  0  0  0  0  0
  -23.3604   12.0744   30.1184 C   0  0  0  0  0  0  0  0  0  0  0  0
  -23.0041   11.7370   31.0563 H   0  0  0  0  0  0  0  0  0  0  0  0
  -24.7208   12.1926   29.8629 C   0  0  0  0  0  0  0  0  0  0  0  0
  -25.4226   11.9408   30.6155 H   0  0  0  0  0  0  0  0  0  0  0  0
  -25.1813   12.6465   28.6050 C   0  0  0  0  0  0  0  0  0  0  0  0
  -26.2247   12.7286   28.4306 H   0  0  0  0  0  0  0  0  0  0  0  0
  -24.2827   12.9829   27.6053 C   0  0  0  0  0  0  0  0  0  0  0  0
  -24.6138   13.3252   26.6588 H   0  0  0  0  0  0  0  0  0  0  0  0
  -19.4351   12.5838   24.6620 C   0  0  0  0  0  0  0  0  0  0  0  0
  -20.4739   12.9149   24.7105 H   0  0  0  0  0  0  0  0  0  0  0  0
  -19.2940   11.9162   23.8096 H   0  0  0  0  0  0  0  0  0  0  0  0
  -18.7592   13.4380   24.5833 H   0  0  0  0  0  0  0  0  0  0  0  0
  1  2  2  0
  1  3  2  0
  1  4  1  0
  1 21  1  0
  4  5  1  0
  4  6  1  0
  4  7  1  0
  7  8  1  0
  7 12  2  0
  8  9  1  0
  8 10  1  0
 10 11  1  0
 10 19  2  0
 11 12  1  0
 11 13  2  0
 13 14  1  0
 13 15  1  0
 15 16  1  0
 15 17  2  0
 17 18  1  0
 17 19  1  0
 19 20  1  0
 21 22  1  0
 21 23  1  0
 21 24  1  0
M  END
$$$$
