F421_60
     RDKit          3D

 19 19  0  0  0  0  0  0  0  0999 V2000
  -22.9475   14.8339   29.4006 O   0  0  0  0  0  0  0  0  0  0  0  0
  -23.5273   13.7657   29.2192 C   0  0  0  0  0  0  0  0  0  0  0  0
  -22.7557   12.7094   28.7387 N   0  0  0  0  0  0  0  0  0  0  0  0
  -21.4351   12.9698   28.1821 C   0  0  0  0  0  0  0  0  0  0  0  0
  -21.3521   12.4604   27.2166 H   0  0  0  0  0  0  0  0  0  0  0  0
  -20.6825   12.5732   28.8698 H   0  0  0  0  0  0  0  0  0  0  0  0
  -21.2507   14.0357   28.0281 H   0  0  0  0  0  0  0  0  0  0  0  0
  -23.1585   11.3096   28.7726 C   0  0  0  0  0  0  0  0  0  0  0  0
  -22.3005   10.6967   29.0678 H   0  0  0  0  0  0  0  0  0  0  0  0
  -23.4843   11.0153   27.7708 H   0  0  0  0  0  0  0  0  0  0  0  0
  -23.9587   11.1348   29.4945 H   0  0  0  0  0  0  0  0  0  0  0  0
  -24.9426   13.5962   29.4934 C   0  0  0  0  0  0  0  0  0  0  0  0
  -25.6175   14.2538   30.4783 C   0  0  0  0  0  0  0  0  0  0  0  0
  -25.2883   14.9476   31.2075 H   0  0  0  0  0  0  0  0  0  0  0  0
  -26.8981   13.8595   30.3786 N   0  0  0  0  0  0  0  0  0  0  0  0
  -27.6693   14.1832   30.9928 H   0  0  0  0  0  0  0  0  0  0  0  0
  -27.0837   12.9757   29.3605 N   0  0  0  0  0  0  0  0  0  0  0  0
  -25.9034   12.8310   28.8286 C   0  0  0  0  0  0  0  0  0  0  0  0
  -25.7221   12.2077   27.9885 H   0  0  0  0  0  0  0  0  0  0  0  0
  1  2  2  0
  2  3  1  0
  2 12  1  0
  3  4  1  0
  3  8  1  0
  4  5  1  0
  4  6  1  0
  4  7  1  0
  8  9  1  0
  8 10  1  0
  8 11  1  0
 12 13  2  0
 12 18  1  0
 13 14  1  0
 13 15  1  0
 15 16  1  0
 15 17  1  0
 17 18  2  0
 18 19  1  0
M  END
$$$$
