F275_40
     RDKit          3D

 20 20  0  0  0  0  0  0  0  0999 V2000
  -25.7004   13.7224   28.0864 S   0  0  0  0  0  0  0  0  0  0  0  0
  -26.3029   14.5522   27.0686 O   0  0  0  0  0  0  0  0  0  0  0  0
  -24.8244   12.6184   27.7590 O   0  0  0  0  0  0  0  0  0  0  0  0
  -26.9555   13.0980   29.0235 N   0  0  0  0  0  0  0  0  0  0  0  0
  -26.6135   12.5077   29.7850 H   0  0  0  0  0  0  0  0  0  0  0  0
  -27.6136   13.8219   29.3235 H   0  0  0  0  0  0  0  0  0  0  0  0
  -24.8793   14.7622   29.2456 C   0  0  0  0  0  0  0  0  0  0  0  0
  -24.3410   14.2259   30.4192 C   0  0  0  0  0  0  0  0  0  0  0  0
  -24.4399   13.1939   30.6368 H   0  0  0  0  0  0  0  0  0  0  0  0
  -23.6689   15.0645   31.2954 C   0  0  0  0  0  0  0  0  0  0  0  0
  -23.1579   14.5450   32.4212 F   0  0  0  0  0  0  0  0  0  0  0  0
  -23.5003   16.4186   31.0484 C   0  0  0  0  0  0  0  0  0  0  0  0
  -22.9768   17.0234   31.7434 H   0  0  0  0  0  0  0  0  0  0  0  0
  -24.0237   16.9593   29.8762 C   0  0  0  0  0  0  0  0  0  0  0  0
  -23.8182   18.4106   29.5536 C   0  0  0  0  0  0  0  0  0  0  0  0
  -23.7509   19.0096   30.4679 H   0  0  0  0  0  0  0  0  0  0  0  0
  -24.6573   18.8031   28.9699 H   0  0  0  0  0  0  0  0  0  0  0  0
  -22.8970   18.5390   28.9779 H   0  0  0  0  0  0  0  0  0  0  0  0
  -24.7027   16.1275   28.9811 C   0  0  0  0  0  0  0  0  0  0  0  0
  -25.0907   16.5304   28.0784 H   0  0  0  0  0  0  0  0  0  0  0  0
  1  2  2  0
  1  3  2  0
  1  4  1  0
  1  7  1  0
  4  5  1  0
  4  6  1  0
  7  8  1  0
  7 19  2  0
  8  9  1  0
  8 10  2  0
 10 11  1  0
 10 12  1  0
 12 13  1  0
 12 14  2  0
 14 15  1  0
 14 19  1  0
 15 16  1  0
 15 17  1  0
 15 18  1  0
 19 20  1  0
M  END
$$$$
