F488_7
     RDKit          3D

 39 40  0  0  0  0  0  0  0  0999 V2000
  -21.5542   10.3246   26.7816 O   0  0  0  0  0  0  0  0  0  0  0  0
  -21.4083   11.3689   27.4089 C   0  0  0  0  0  0  0  0  0  0  0  0
  -22.4973   11.8608   28.3612 C   0  0  0  0  0  0  0  0  0  0  0  0
  -23.2396   11.0581   28.4457 H   0  0  0  0  0  0  0  0  0  0  0  0
  -22.0873   11.9867   29.3707 H   0  0  0  0  0  0  0  0  0  0  0  0
  -23.1808   13.0304   27.9425 O   0  0  0  0  0  0  0  0  0  0  0  0
  -24.2040   13.5127   28.7181 C   0  0  0  0  0  0  0  0  0  0  0  0
  -24.1381   13.7635   30.0881 C   0  0  0  0  0  0  0  0  0  0  0  0
  -23.2519   13.5783   30.6366 H   0  0  0  0  0  0  0  0  0  0  0  0
  -25.2587   14.2622   30.7450 C   0  0  0  0  0  0  0  0  0  0  0  0
  -25.2111   14.4599   31.7859 H   0  0  0  0  0  0  0  0  0  0  0  0
  -26.4417   14.5007   30.0449 C   0  0  0  0  0  0  0  0  0  0  0  0
  -27.6381   15.0700   30.7530 C   0  0  0  0  0  0  0  0  0  0  0  0
  -27.6093   16.1633   30.7120 H   0  0  0  0  0  0  0  0  0  0  0  0
  -28.5677   14.7220   30.2926 H   0  0  0  0  0  0  0  0  0  0  0  0
  -27.6576   14.7559   31.8015 H   0  0  0  0  0  0  0  0  0  0  0  0
  -26.4973   14.2353   28.6758 C   0  0  0  0  0  0  0  0  0  0  0  0
  -27.3933   14.4084   28.1381 H   0  0  0  0  0  0  0  0  0  0  0  0
  -25.3808   13.7375   28.0115 C   0  0  0  0  0  0  0  0  0  0  0  0
  -25.4230   13.5268   26.9741 H   0  0  0  0  0  0  0  0  0  0  0  0
  -20.2732   12.0923   27.2268 N   0  0  0  0  0  0  0  0  0  0  0  0
  -19.1695   11.5441   26.4253 C   0  0  0  0  0  0  0  0  0  0  0  0
  -18.3516   11.3263   27.1240 H   0  0  0  0  0  0  0  0  0  0  0  0
  -19.4444   10.5977   25.9503 H   0  0  0  0  0  0  0  0  0  0  0  0
  -18.6938   12.5279   25.3532 C   0  0  0  0  0  0  0  0  0  0  0  0
  -19.4762   12.7282   24.6137 H   0  0  0  0  0  0  0  0  0  0  0  0
  -17.7939   12.1556   24.8551 H   0  0  0  0  0  0  0  0  0  0  0  0
  -18.3375   13.8563   26.0026 N   0  0  0  0  0  0  0  0  0  0  0  0
  -17.5866   13.6767   26.6844 H   0  0  0  0  0  0  0  0  0  0  0  0
  -17.7894   14.8359   25.0061 C   0  0  0  0  0  0  0  0  0  0  0  0
  -17.5031   15.7428   25.5453 H   0  0  0  0  0  0  0  0  0  0  0  0
  -16.9092   14.3861   24.5384 H   0  0  0  0  0  0  0  0  0  0  0  0
  -18.5620   15.0492   24.2630 H   0  0  0  0  0  0  0  0  0  0  0  0
  -19.5226   14.4251   26.7635 C   0  0  0  0  0  0  0  0  0  0  0  0
  -20.3029   14.6450   26.0270 H   0  0  0  0  0  0  0  0  0  0  0  0
  -19.1927   15.3520   27.2425 H   0  0  0  0  0  0  0  0  0  0  0  0
  -20.0174   13.4162   27.8108 C   0  0  0  0  0  0  0  0  0  0  0  0
  -20.9098   13.8282   28.2845 H   0  0  0  0  0  0  0  0  0  0  0  0
  -19.2589   13.2800   28.5915 H   0  0  0  0  0  0  0  0  0  0  0  0
  1  2  2  0
  2  3  1  0
  2 21  1  0
  3  4  1  0
  3  5  1  0
  3  6  1  0
  6  7  1  0
  7  8  1  0
  7 19  2  0
  8  9  1  0
  8 10  2  0
 10 11  1  0
 10 12  1  0
 12 13  1  0
 12 17  2  0
 13 14  1  0
 13 15  1  0
 13 16  1  0
 17 18  1  0
 17 19  1  0
 19 20  1  0
 21 22  1  0
 21 37  1  0
 22 23  1  0
 22 24  1  0
 22 25  1  0
 25 26  1  0
 25 27  1  0
 25 28  1  0
 28 29  1  0
 28 30  1  0
 28 34  1  0
 30 31  1  0
 30 32  1  0
 30 33  1  0
 34 35  1  0
 34 36  1  0
 34 37  1  0
 37 38  1  0
 37 39  1  0
M  END
$$$$
