F467_12
     RDKit          3D

 24 24  0  0  0  0  0  0  0  0999 V2000
  -24.2735   11.5829   26.5192 O   0  0  0  0  0  0  0  0  0  0  0  0
  -24.8144   10.7732   26.5360 H   0  0  0  0  0  0  0  0  0  0  0  0
  -23.5907   11.6550   27.7653 C   0  0  0  0  0  0  0  0  0  0  0  0
  -24.3003   11.4244   28.5658 H   0  0  0  0  0  0  0  0  0  0  0  0
  -22.8082   10.8900   27.7596 H   0  0  0  0  0  0  0  0  0  0  0  0
  -22.9538   13.0367   27.9630 C   0  0  0  0  0  0  0  0  0  0  0  0
  -22.5010   13.3973   27.0319 H   0  0  0  0  0  0  0  0  0  0  0  0
  -22.1202   12.9342   28.6692 H   0  0  0  0  0  0  0  0  0  0  0  0
  -23.9160   14.0162   28.5146 N   0  0  0  0  0  0  0  0  0  0  0  0
  -25.0320   14.3586   27.6332 C   0  0  0  0  0  0  0  0  0  0  0  0
  -24.8989   13.9440   26.6268 H   0  0  0  0  0  0  0  0  0  0  0  0
  -25.1183   15.4447   27.5199 H   0  0  0  0  0  0  0  0  0  0  0  0
  -25.9711   13.9572   28.0294 H   0  0  0  0  0  0  0  0  0  0  0  0
  -23.7170   14.5442   29.7670 C   0  0  0  0  0  0  0  0  0  0  0  0
  -23.5563   13.6358   30.7406 N   0  0  0  0  0  0  0  0  0  0  0  0
  -23.6146   12.6532   30.4511 H   0  0  0  0  0  0  0  0  0  0  0  0
  -23.3283   13.9721   32.0453 C   0  0  0  0  0  0  0  0  0  0  0  0
  -23.2159   13.1583   32.7188 H   0  0  0  0  0  0  0  0  0  0  0  0
  -23.2596   15.3001   32.3958 C   0  0  0  0  0  0  0  0  0  0  0  0
  -23.0826   15.5846   33.4023 H   0  0  0  0  0  0  0  0  0  0  0  0
  -23.4312   16.2918   31.4139 C   0  0  0  0  0  0  0  0  0  0  0  0
  -23.3888   17.3203   31.6817 H   0  0  0  0  0  0  0  0  0  0  0  0
  -23.6615   15.9207   30.1106 C   0  0  0  0  0  0  0  0  0  0  0  0
  -23.8101   16.6573   29.3669 H   0  0  0  0  0  0  0  0  0  0  0  0
  1  2  1  0
  1  3  1  0
  3  4  1  0
  3  5  1  0
  3  6  1  0
  6  7  1  0
  6  8  1  0
  6  9  1  0
  9 10  1  0
  9 14  1  0
 10 11  1  0
 10 12  1  0
 10 13  1  0
 14 15  1  0
 14 23  2  0
 15 16  1  0
 15 17  2  0
 17 18  1  0
 17 19  1  0
 19 20  1  0
 19 21  2  0
 21 22  1  0
 21 23  1  0
 23 24  1  0
M  END
$$$$
