F217_94
     RDKit          3D

 28 29  0  0  0  0  0  0  0  0999 V2000
  -17.1124   14.9274   26.4572 O   0  0  0  0  0  0  0  0  0  0  0  0
  -18.1642   14.4793   26.0315 C   0  0  0  0  0  0  0  0  0  0  0  0
  -18.2084   13.9731   24.8153 N   0  0  0  0  0  0  0  0  0  0  0  0
  -17.3491   13.9855   24.2913 H   0  0  0  0  0  0  0  0  0  0  0  0
  -19.0607   13.6005   24.4351 H   0  0  0  0  0  0  0  0  0  0  0  0
  -19.4545   14.4547   26.8069 C   0  0  0  0  0  0  0  0  0  0  0  0
  -19.5049   15.3539   27.4310 H   0  0  0  0  0  0  0  0  0  0  0  0
  -20.2857   14.5023   26.0932 H   0  0  0  0  0  0  0  0  0  0  0  0
  -19.5514   13.2007   27.6655 C   0  0  0  0  0  0  0  0  0  0  0  0
  -19.5856   13.4522   28.7312 H   0  0  0  0  0  0  0  0  0  0  0  0
  -18.6755   12.5544   27.5286 H   0  0  0  0  0  0  0  0  0  0  0  0
  -20.7289   12.4183   27.3399 N   0  0  0  0  0  0  0  0  0  0  0  0
  -20.7810   11.2944   26.5482 C   0  0  0  0  0  0  0  0  0  0  0  0
  -19.5883   10.7077   25.8818 C   0  0  0  0  0  0  0  0  0  0  0  0
  -19.8510    9.7679   25.3871 H   0  0  0  0  0  0  0  0  0  0  0  0
  -18.7990   10.4953   26.6082 H   0  0  0  0  0  0  0  0  0  0  0  0
  -19.1979   11.3903   25.1209 H   0  0  0  0  0  0  0  0  0  0  0  0
  -21.9807   10.8237   26.4632 N   0  0  0  0  0  0  0  0  0  0  0  0
  -22.7658   11.6611   27.2242 C   0  0  0  0  0  0  0  0  0  0  0  0
  -21.9964   12.6646   27.7772 C   0  0  0  0  0  0  0  0  0  0  0  0
  -22.5302   13.6659   28.6017 C   0  0  0  0  0  0  0  0  0  0  0  0
  -21.9179   14.4278   29.0103 H   0  0  0  0  0  0  0  0  0  0  0  0
  -23.8912   13.6254   28.8627 C   0  0  0  0  0  0  0  0  0  0  0  0
  -24.3346   14.3622   29.4803 H   0  0  0  0  0  0  0  0  0  0  0  0
  -24.6960   12.6043   28.3079 C   0  0  0  0  0  0  0  0  0  0  0  0
  -25.7360   12.5882   28.5173 H   0  0  0  0  0  0  0  0  0  0  0  0
  -24.1407   11.6270   27.4930 C   0  0  0  0  0  0  0  0  0  0  0  0
  -24.7342   10.8601   27.0718 H   0  0  0  0  0  0  0  0  0  0  0  0
  1  2  2  0
  2  3  1  0
  2  6  1  0
  3  4  1  0
  3  5  1  0
  6  7  1  0
  6  8  1  0
  6  9  1  0
  9 10  1  0
  9 11  1  0
  9 12  1  0
 12 13  1  0
 12 20  1  0
 13 14  1  0
 13 18  2  0
 14 15  1  0
 14 16  1  0
 14 17  1  0
 18 19  1  0
 19 20  1  0
 19 27  2  0
 20 21  2  0
 21 22  1  0
 21 23  1  0
 23 24  1  0
 23 25  2  0
 25 26  1  0
 25 27  1  0
 27 28  1  0
M  END
$$$$
