F488_8
     RDKit          3D

 39 40  0  0  0  0  0  0  0  0999 V2000
  -21.5528   10.3238   26.7837 O   0  0  0  0  0  0  0  0  0  0  0  0
  -21.4047   11.3666   27.4131 C   0  0  0  0  0  0  0  0  0  0  0  0
  -22.4910   11.8571   28.3690 C   0  0  0  0  0  0  0  0  0  0  0  0
  -23.2384   11.0584   28.4463 H   0  0  0  0  0  0  0  0  0  0  0  0
  -22.0807   11.9717   29.3798 H   0  0  0  0  0  0  0  0  0  0  0  0
  -23.1669   13.0345   27.9601 O   0  0  0  0  0  0  0  0  0  0  0  0
  -24.1920   13.5127   28.7358 C   0  0  0  0  0  0  0  0  0  0  0  0
  -24.1316   13.7496   30.1085 C   0  0  0  0  0  0  0  0  0  0  0  0
  -23.2487   13.5558   30.6592 H   0  0  0  0  0  0  0  0  0  0  0  0
  -25.2534   14.2457   30.7651 C   0  0  0  0  0  0  0  0  0  0  0  0
  -25.2100   14.4329   31.8082 H   0  0  0  0  0  0  0  0  0  0  0  0
  -26.4323   14.4953   30.0621 C   0  0  0  0  0  0  0  0  0  0  0  0
  -27.6300   15.0619   30.7703 C   0  0  0  0  0  0  0  0  0  0  0  0
  -27.5972   16.1554   30.7403 H   0  0  0  0  0  0  0  0  0  0  0  0
  -28.5587   14.7218   30.3021 H   0  0  0  0  0  0  0  0  0  0  0  0
  -27.6555   14.7374   31.8155 H   0  0  0  0  0  0  0  0  0  0  0  0
  -26.4826   14.2439   28.6901 C   0  0  0  0  0  0  0  0  0  0  0  0
  -27.3754   14.4255   28.1500 H   0  0  0  0  0  0  0  0  0  0  0  0
  -25.3647   13.7487   28.0260 C   0  0  0  0  0  0  0  0  0  0  0  0
  -25.4028   13.5485   26.9864 H   0  0  0  0  0  0  0  0  0  0  0  0
  -20.2694   12.0896   27.2299 N   0  0  0  0  0  0  0  0  0  0  0  0
  -19.1680   11.5425   26.4245 C   0  0  0  0  0  0  0  0  0  0  0  0
  -18.3486   11.3224   27.1208 H   0  0  0  0  0  0  0  0  0  0  0  0
  -19.4447   10.5972   25.9481 H   0  0  0  0  0  0  0  0  0  0  0  0
  -18.6941   12.5283   25.3536 C   0  0  0  0  0  0  0  0  0  0  0  0
  -19.4781   12.7308   24.6164 H   0  0  0  0  0  0  0  0  0  0  0  0
  -17.7957   12.1565   24.8525 H   0  0  0  0  0  0  0  0  0  0  0  0
  -18.3353   13.8550   26.0051 N   0  0  0  0  0  0  0  0  0  0  0  0
  -17.5829   13.6733   26.6848 H   0  0  0  0  0  0  0  0  0  0  0  0
  -17.7890   14.8364   25.0095 C   0  0  0  0  0  0  0  0  0  0  0  0
  -17.5007   15.7419   25.5501 H   0  0  0  0  0  0  0  0  0  0  0  0
  -16.9101   14.3870   24.5387 H   0  0  0  0  0  0  0  0  0  0  0  0
  -18.5631   15.0520   24.2688 H   0  0  0  0  0  0  0  0  0  0  0  0
  -19.5183   14.4229   26.7702 C   0  0  0  0  0  0  0  0  0  0  0  0
  -20.3001   14.6451   26.0359 H   0  0  0  0  0  0  0  0  0  0  0  0
  -19.1865   15.3485   27.2505 H   0  0  0  0  0  0  0  0  0  0  0  0
  -20.0113   13.4119   27.8163 C   0  0  0  0  0  0  0  0  0  0  0  0
  -20.9023   13.8235   28.2931 H   0  0  0  0  0  0  0  0  0  0  0  0
  -19.2510   13.2735   28.5949 H   0  0  0  0  0  0  0  0  0  0  0  0
  1  2  2  0
  2  3  1  0
  2 21  1  0
  3  4  1  0
  3  5  1  0
  3  6  1  0
  6  7  1  0
  7  8  1  0
  7 19  2  0
  8  9  1  0
  8 10  2  0
 10 11  1  0
 10 12  1  0
 12 13  1  0
 12 17  2  0
 13 14  1  0
 13 15  1  0
 13 16  1  0
 17 18  1  0
 17 19  1  0
 19 20  1  0
 21 22  1  0
 21 37  1  0
 22 23  1  0
 22 24  1  0
 22 25  1  0
 25 26  1  0
 25 27  1  0
 25 28  1  0
 28 29  1  0
 28 30  1  0
 28 34  1  0
 30 31  1  0
 30 32  1  0
 30 33  1  0
 34 35  1  0
 34 36  1  0
 34 37  1  0
 37 38  1  0
 37 39  1  0
M  END
$$$$
