F710_79
     RDKit          3D

 30 31  0  0  0  0  0  0  0  0999 V2000
  -25.1538   12.8580   29.9604 F   0  0  0  0  0  0  0  0  0  0  0  0
  -23.9908   12.8028   29.2955 C   0  0  0  0  0  0  0  0  0  0  0  0
  -22.8604   12.3386   29.9575 C   0  0  0  0  0  0  0  0  0  0  0  0
  -22.9222   12.0384   30.9708 H   0  0  0  0  0  0  0  0  0  0  0  0
  -21.6536   12.2827   29.2675 C   0  0  0  0  0  0  0  0  0  0  0  0
  -20.7744   11.9518   29.7535 H   0  0  0  0  0  0  0  0  0  0  0  0
  -21.5955   12.6863   27.9263 C   0  0  0  0  0  0  0  0  0  0  0  0
  -20.3908   12.6324   27.2371 N   0  0  0  0  0  0  0  0  0  0  0  0
  -19.9568   11.4280   26.5163 C   0  0  0  0  0  0  0  0  0  0  0  0
  -19.0831   11.0041   27.0260 H   0  0  0  0  0  0  0  0  0  0  0  0
  -20.7321   10.6544   26.4858 H   0  0  0  0  0  0  0  0  0  0  0  0
  -19.5982   11.7942   25.0676 C   0  0  0  0  0  0  0  0  0  0  0  0
  -20.5006   12.1079   24.5290 H   0  0  0  0  0  0  0  0  0  0  0  0
  -19.2042   10.9124   24.5517 H   0  0  0  0  0  0  0  0  0  0  0  0
  -18.6585   12.9209   24.9991 N   0  0  0  0  0  0  0  0  0  0  0  0
  -17.4943   12.7695   24.2967 C   0  0  0  0  0  0  0  0  0  0  0  0
  -17.0942   11.7021   23.8636 O   0  0  0  0  0  0  0  0  0  0  0  0
  -16.7860   13.8802   24.0784 N   0  0  0  0  0  0  0  0  0  0  0  0
  -15.9428   13.7404   23.5117 H   0  0  0  0  0  0  0  0  0  0  0  0
  -17.3249   14.7399   23.9538 H   0  0  0  0  0  0  0  0  0  0  0  0
  -19.0969   14.1148   25.7441 C   0  0  0  0  0  0  0  0  0  0  0  0
  -18.3281   14.8899   25.7577 H   0  0  0  0  0  0  0  0  0  0  0  0
  -19.9741   14.5126   25.2214 H   0  0  0  0  0  0  0  0  0  0  0  0
  -19.4538   13.7629   27.1981 C   0  0  0  0  0  0  0  0  0  0  0  0
  -19.8298   14.6535   27.7127 H   0  0  0  0  0  0  0  0  0  0  0  0
  -18.5414   13.4641   27.7300 H   0  0  0  0  0  0  0  0  0  0  0  0
  -22.7489   13.1566   27.2770 C   0  0  0  0  0  0  0  0  0  0  0  0
  -22.7143   13.4559   26.2643 H   0  0  0  0  0  0  0  0  0  0  0  0
  -23.9552   13.2129   27.9682 C   0  0  0  0  0  0  0  0  0  0  0  0
  -24.8376   13.5598   27.4973 H   0  0  0  0  0  0  0  0  0  0  0  0
  1  2  1  0
  2  3  1  0
  2 29  2  0
  3  4  1  0
  3  5  2  0
  5  6  1  0
  5  7  1  0
  7  8  1  0
  7 27  2  0
  8  9  1  0
  8 24  1  0
  9 10  1  0
  9 11  1  0
  9 12  1  0
 12 13  1  0
 12 14  1  0
 12 15  1  0
 15 16  1  0
 15 21  1  0
 16 17  2  0
 16 18  1  0
 18 19  1  0
 18 20  1  0
 21 22  1  0
 21 23  1  0
 21 24  1  0
 24 25  1  0
 24 26  1  0
 27 28  1  0
 27 29  1  0
 29 30  1  0
M  END
$$$$
