F535_44
     RDKit          3D

 23 24  0  0  0  0  0  0  0  0999 V2000
  -22.3166   12.5197   27.0862 N   0  0  0  0  0  0  0  0  0  0  0  0
  -21.9811   11.6354   26.6747 H   0  0  0  0  0  0  0  0  0  0  0  0
  -22.4318   13.1451   26.2762 H   0  0  0  0  0  0  0  0  0  0  0  0
  -23.6725   12.2697   27.6752 C   0  0  0  0  0  0  0  0  0  0  0  0
  -24.1998   11.6049   26.9847 H   0  0  0  0  0  0  0  0  0  0  0  0
  -23.5125   11.7630   28.6330 H   0  0  0  0  0  0  0  0  0  0  0  0
  -24.4112   13.5388   27.8637 C   0  0  0  0  0  0  0  0  0  0  0  0
  -24.3844   14.3003   28.9655 N   0  0  0  0  0  0  0  0  0  0  0  0
  -25.1946   15.3564   28.7236 C   0  0  0  0  0  0  0  0  0  0  0  0
  -25.6898   15.2385   27.5129 N   0  0  0  0  0  0  0  0  0  0  0  0
  -25.1888   14.0953   26.9796 N   0  0  0  0  0  0  0  0  0  0  0  0
  -25.3611   16.3429   29.7412 C   0  0  0  0  0  0  0  0  0  0  0  0
  -25.9970   17.1698   29.5537 H   0  0  0  0  0  0  0  0  0  0  0  0
  -24.7056   16.2086   30.9314 C   0  0  0  0  0  0  0  0  0  0  0  0
  -24.8198   16.9335   31.6980 H   0  0  0  0  0  0  0  0  0  0  0  0
  -23.8549   15.0799   31.1497 C   0  0  0  0  0  0  0  0  0  0  0  0
  -23.3512   14.9922   32.0806 H   0  0  0  0  0  0  0  0  0  0  0  0
  -23.6931   14.1314   30.1781 C   0  0  0  0  0  0  0  0  0  0  0  0
  -23.0846   13.2689   30.2565 H   0  0  0  0  0  0  0  0  0  0  0  0
  -21.3081   13.0667   28.0237 C   0  0  0  0  0  0  0  0  0  0  0  0
  -21.1721   12.3525   28.8384 H   0  0  0  0  0  0  0  0  0  0  0  0
  -21.6698   14.0286   28.3942 H   0  0  0  0  0  0  0  0  0  0  0  0
  -20.3774   13.1962   27.4664 H   0  0  0  0  0  0  0  0  0  0  0  0
  1  2  1  0
  1  3  1  0
  1  4  1  0
  1 20  1  0
  4  5  1  0
  4  6  1  0
  4  7  1  0
  7  8  1  0
  7 11  2  0
  8  9  1  0
  8 18  1  0
  9 10  2  0
  9 12  1  0
 10 11  1  0
 12 13  1  0
 12 14  2  0
 14 15  1  0
 14 16  1  0
 16 17  1  0
 16 18  2  0
 18 19  1  0
 20 21  1  0
 20 22  1  0
 20 23  1  0
M  END
$$$$
