F618_39
     RDKit          3D

 26 26  0  0  0  0  0  0  0  0999 V2000
  -23.1059   13.2192   31.2689 F   0  0  0  0  0  0  0  0  0  0  0  0
  -23.1611   13.1560   29.9294 C   0  0  0  0  0  0  0  0  0  0  0  0
  -23.9888   14.0066   29.1736 C   0  0  0  0  0  0  0  0  0  0  0  0
  -24.7865   14.9940   29.7735 N   0  0  0  0  0  0  0  0  0  0  0  0
  -26.1961   15.1027   29.3288 C   0  0  0  0  0  0  0  0  0  0  0  0
  -26.4239   16.3910   28.5165 C   0  0  0  0  0  0  0  0  0  0  0  0
  -26.5109   17.2543   29.1851 H   0  0  0  0  0  0  0  0  0  0  0  0
  -27.3441   16.3375   27.9263 H   0  0  0  0  0  0  0  0  0  0  0  0
  -25.3477   16.6435   27.6154 O   0  0  0  0  0  0  0  0  0  0  0  0
  -25.0774   15.7635   27.2969 H   0  0  0  0  0  0  0  0  0  0  0  0
  -27.1867   14.9986   30.4949 C   0  0  0  0  0  0  0  0  0  0  0  0
  -28.2082   14.8950   30.1118 H   0  0  0  0  0  0  0  0  0  0  0  0
  -27.1771   15.8844   31.1368 H   0  0  0  0  0  0  0  0  0  0  0  0
  -26.9725   14.1225   31.1148 H   0  0  0  0  0  0  0  0  0  0  0  0
  -24.2423   15.8700   30.8009 C   0  0  0  0  0  0  0  0  0  0  0  0
  -24.1485   15.3384   31.7535 H   0  0  0  0  0  0  0  0  0  0  0  0
  -24.8697   16.7491   30.9750 H   0  0  0  0  0  0  0  0  0  0  0  0
  -23.2650   16.2699   30.5049 H   0  0  0  0  0  0  0  0  0  0  0  0
  -24.0424   13.9185   27.8356 N   0  0  0  0  0  0  0  0  0  0  0  0
  -23.2995   12.9880   27.2234 C   0  0  0  0  0  0  0  0  0  0  0  0
  -23.3578   12.9290   26.1669 H   0  0  0  0  0  0  0  0  0  0  0  0
  -22.4677   12.1115   27.9229 C   0  0  0  0  0  0  0  0  0  0  0  0
  -21.8978   11.3904   27.3974 H   0  0  0  0  0  0  0  0  0  0  0  0
  -22.3893   12.1909   29.3109 C   0  0  0  0  0  0  0  0  0  0  0  0
  -21.7675   11.5452   29.8749 H   0  0  0  0  0  0  0  0  0  0  0  0
  -26.4434   14.2499   28.6823 H   0  0  0  0  0  0  0  0  0  0  0  0
  1  2  1  0
  2  3  1  0
  2 24  2  0
  3  4  1  0
  3 19  2  0
  4  5  1  0
  4 15  1  0
  5  6  1  0
  5 11  1  0
  5 26  1  0
  6  7  1  0
  6  8  1  0
  6  9  1  0
  9 10  1  0
 11 12  1  0
 11 13  1  0
 11 14  1  0
 15 16  1  0
 15 17  1  0
 15 18  1  0
 19 20  1  0
 20 21  1  0
 20 22  2  0
 22 23  1  0
 22 24  1  0
 24 25  1  0
M  END
$$$$
