F710_78
     RDKit          3D

 30 31  0  0  0  0  0  0  0  0999 V2000
  -25.2114   12.7677   29.9259 F   0  0  0  0  0  0  0  0  0  0  0  0
  -24.0461   12.7234   29.2641 C   0  0  0  0  0  0  0  0  0  0  0  0
  -24.0267   13.0586   27.9155 C   0  0  0  0  0  0  0  0  0  0  0  0
  -24.9209   13.3400   27.4237 H   0  0  0  0  0  0  0  0  0  0  0  0
  -22.8175   13.0112   27.2291 C   0  0  0  0  0  0  0  0  0  0  0  0
  -22.7786   13.2426   26.1978 H   0  0  0  0  0  0  0  0  0  0  0  0
  -21.6462   12.6348   27.9009 C   0  0  0  0  0  0  0  0  0  0  0  0
  -20.4389   12.5856   27.2161 N   0  0  0  0  0  0  0  0  0  0  0  0
  -20.0216   11.4015   26.4531 C   0  0  0  0  0  0  0  0  0  0  0  0
  -19.1581   10.9439   26.9509 H   0  0  0  0  0  0  0  0  0  0  0  0
  -20.8099   10.6432   26.3899 H   0  0  0  0  0  0  0  0  0  0  0  0
  -19.6487   11.8150   25.0208 C   0  0  0  0  0  0  0  0  0  0  0  0
  -20.5426   12.1642   24.4898 H   0  0  0  0  0  0  0  0  0  0  0  0
  -19.2670   10.9464   24.4744 H   0  0  0  0  0  0  0  0  0  0  0  0
  -18.6895   12.9270   24.9990 N   0  0  0  0  0  0  0  0  0  0  0  0
  -17.5241   12.7817   24.2971 C   0  0  0  0  0  0  0  0  0  0  0  0
  -17.1399   11.7243   23.8266 O   0  0  0  0  0  0  0  0  0  0  0  0
  -16.7956   13.8873   24.1239 N   0  0  0  0  0  0  0  0  0  0  0  0
  -15.9508   13.7535   23.5582 H   0  0  0  0  0  0  0  0  0  0  0  0
  -17.3191   14.7600   24.0268 H   0  0  0  0  0  0  0  0  0  0  0  0
  -19.1115   14.0998   25.7857 C   0  0  0  0  0  0  0  0  0  0  0  0
  -18.3295   14.8605   25.8320 H   0  0  0  0  0  0  0  0  0  0  0  0
  -19.9788   14.5320   25.2739 H   0  0  0  0  0  0  0  0  0  0  0  0
  -19.4823   13.7004   27.2238 C   0  0  0  0  0  0  0  0  0  0  0  0
  -19.8459   14.5776   27.7694 H   0  0  0  0  0  0  0  0  0  0  0  0
  -18.5783   13.3662   27.7487 H   0  0  0  0  0  0  0  0  0  0  0  0
  -21.6884   12.2956   29.2634 C   0  0  0  0  0  0  0  0  0  0  0  0
  -20.8085   12.0177   29.7781 H   0  0  0  0  0  0  0  0  0  0  0  0
  -22.8984   12.3424   29.9488 C   0  0  0  0  0  0  0  0  0  0  0  0
  -22.9525   12.0951   30.9767 H   0  0  0  0  0  0  0  0  0  0  0  0
  1  2  1  0
  2  3  1  0
  2 29  2  0
  3  4  1  0
  3  5  2  0
  5  6  1  0
  5  7  1  0
  7  8  1  0
  7 27  2  0
  8  9  1  0
  8 24  1  0
  9 10  1  0
  9 11  1  0
  9 12  1  0
 12 13  1  0
 12 14  1  0
 12 15  1  0
 15 16  1  0
 15 21  1  0
 16 17  2  0
 16 18  1  0
 18 19  1  0
 18 20  1  0
 21 22  1  0
 21 23  1  0
 21 24  1  0
 24 25  1  0
 24 26  1  0
 27 28  1  0
 27 29  1  0
 29 30  1  0
M  END
$$$$
