F740_65
     RDKit          3D

 26 28  0  0  0  0  0  0  0  0999 V2000
  -24.1802   14.3563   27.7330 O   0  0  0  0  0  0  0  0  0  0  0  0
  -24.2525   14.2428   28.9525 C   0  0  0  0  0  0  0  0  0  0  0  0
  -24.9449   15.2040   29.6451 N   0  0  0  0  0  0  0  0  0  0  0  0
  -25.1071   15.0569   30.6454 H   0  0  0  0  0  0  0  0  0  0  0  0
  -25.4784   16.3834   29.0402 C   0  0  0  0  0  0  0  0  0  0  0  0
  -26.2741   16.1707   28.3293 H   0  0  0  0  0  0  0  0  0  0  0  0
  -24.5920   17.5564   28.7210 C   0  0  0  0  0  0  0  0  0  0  0  0
  -23.5451   17.5112   28.9962 H   0  0  0  0  0  0  0  0  0  0  0  0
  -24.7876   18.1013   27.8050 H   0  0  0  0  0  0  0  0  0  0  0  0
  -25.5997   17.6593   29.8273 C   0  0  0  0  0  0  0  0  0  0  0  0
  -26.4823   18.2653   29.6628 H   0  0  0  0  0  0  0  0  0  0  0  0
  -25.2389   17.6680   30.8487 H   0  0  0  0  0  0  0  0  0  0  0  0
  -23.6766   13.0954   29.6874 C   0  0  0  0  0  0  0  0  0  0  0  0
  -23.3307   13.2789   31.0398 C   0  0  0  0  0  0  0  0  0  0  0  0
  -23.4756   14.2146   31.5141 H   0  0  0  0  0  0  0  0  0  0  0  0
  -22.7946   12.2129   31.7425 C   0  0  0  0  0  0  0  0  0  0  0  0
  -22.4070   12.2277   33.0444 O   0  0  0  0  0  0  0  0  0  0  0  0
  -21.9439   10.8709   33.2066 C   0  0  0  0  0  0  0  0  0  0  0  0
  -20.8901   10.8933   33.5044 H   0  0  0  0  0  0  0  0  0  0  0  0
  -22.5252   10.3948   34.0046 H   0  0  0  0  0  0  0  0  0  0  0  0
  -22.0682   10.0764   32.0082 O   0  0  0  0  0  0  0  0  0  0  0  0
  -22.6023   10.9881   31.1527 C   0  0  0  0  0  0  0  0  0  0  0  0
  -22.9405   10.7643   29.8257 C   0  0  0  0  0  0  0  0  0  0  0  0
  -22.7922    9.8095   29.3895 H   0  0  0  0  0  0  0  0  0  0  0  0
  -23.4827   11.8226   29.0952 C   0  0  0  0  0  0  0  0  0  0  0  0
  -23.7628   11.6596   28.0859 H   0  0  0  0  0  0  0  0  0  0  0  0
  1  2  2  0
  2  3  1  0
  2 13  1  0
  3  4  1  0
  3  5  1  0
  5  6  1  0
  5  7  1  0
  5 10  1  0
  7  8  1  0
  7  9  1  0
  7 10  1  0
 10 11  1  0
 10 12  1  0
 13 14  1  0
 13 25  2  0
 14 15  1  0
 14 16  2  0
 16 17  1  0
 16 22  1  0
 17 18  1  0
 18 19  1  0
 18 20  1  0
 18 21  1  0
 21 22  1  0
 22 23  2  0
 23 24  1  0
 23 25  1  0
 25 26  1  0
M  END
$$$$
