F421_42
     RDKit          3D

 19 19  0  0  0  0  0  0  0  0999 V2000
  -24.9870   14.9591   29.8378 O   0  0  0  0  0  0  0  0  0  0  0  0
  -24.3018   13.9489   29.6956 C   0  0  0  0  0  0  0  0  0  0  0  0
  -23.9282   13.2784   30.8588 N   0  0  0  0  0  0  0  0  0  0  0  0
  -24.0695   13.9340   32.1517 C   0  0  0  0  0  0  0  0  0  0  0  0
  -23.1312   13.8281   32.7057 H   0  0  0  0  0  0  0  0  0  0  0  0
  -24.8768   13.4448   32.7043 H   0  0  0  0  0  0  0  0  0  0  0  0
  -24.2969   14.9985   32.0564 H   0  0  0  0  0  0  0  0  0  0  0  0
  -23.4160   11.9149   30.8982 C   0  0  0  0  0  0  0  0  0  0  0  0
  -23.8695   11.3859   31.7427 H   0  0  0  0  0  0  0  0  0  0  0  0
  -22.3317   11.9528   31.0366 H   0  0  0  0  0  0  0  0  0  0  0  0
  -23.6596   11.3633   29.9880 H   0  0  0  0  0  0  0  0  0  0  0  0
  -23.9000   13.4631   28.3881 C   0  0  0  0  0  0  0  0  0  0  0  0
  -22.6525   13.0010   28.0914 C   0  0  0  0  0  0  0  0  0  0  0  0
  -21.7772   12.9239   28.6824 H   0  0  0  0  0  0  0  0  0  0  0  0
  -22.6969   12.6094   26.8069 N   0  0  0  0  0  0  0  0  0  0  0  0
  -21.8980   12.2084   26.2797 H   0  0  0  0  0  0  0  0  0  0  0  0
  -23.9289   12.7920   26.2584 N   0  0  0  0  0  0  0  0  0  0  0  0
  -24.6477   13.2974   27.2202 C   0  0  0  0  0  0  0  0  0  0  0  0
  -25.6755   13.5378   27.1066 H   0  0  0  0  0  0  0  0  0  0  0  0
  1  2  2  0
  2  3  1  0
  2 12  1  0
  3  4  1  0
  3  8  1  0
  4  5  1  0
  4  6  1  0
  4  7  1  0
  8  9  1  0
  8 10  1  0
  8 11  1  0
 12 13  2  0
 12 18  1  0
 13 14  1  0
 13 15  1  0
 15 16  1  0
 15 17  1  0
 17 18  2  0
 18 19  1  0
M  END
$$$$
