F229_81
     RDKit          3D

 27 28  0  0  0  0  0  0  0  0999 V2000
  -24.1603   14.9587   29.1970 F   0  0  0  0  0  0  0  0  0  0  0  0
  -23.7469   15.4411   30.3798 C   0  0  0  0  0  0  0  0  0  0  0  0
  -23.6003   14.5932   31.4960 C   0  0  0  0  0  0  0  0  0  0  0  0
  -23.8577   13.2284   31.4667 N   0  0  0  0  0  0  0  0  0  0  0  0
  -24.5800   12.8823   30.8463 H   0  0  0  0  0  0  0  0  0  0  0  0
  -23.1524   12.2410   32.2651 C   0  0  0  0  0  0  0  0  0  0  0  0
  -22.1626   12.6305   32.5331 H   0  0  0  0  0  0  0  0  0  0  0  0
  -23.6964   12.0674   33.2013 H   0  0  0  0  0  0  0  0  0  0  0  0
  -22.9698   10.9203   31.5816 C   0  0  0  0  0  0  0  0  0  0  0  0
  -22.4741    9.7469   32.1464 C   0  0  0  0  0  0  0  0  0  0  0  0
  -22.0052    9.5156   33.5338 C   0  0  0  0  0  0  0  0  0  0  0  0
  -22.7666    9.8317   34.2547 H   0  0  0  0  0  0  0  0  0  0  0  0
  -21.0907   10.0864   33.7266 H   0  0  0  0  0  0  0  0  0  0  0  0
  -21.7888    8.4580   33.7179 H   0  0  0  0  0  0  0  0  0  0  0  0
  -22.4574    8.7799   31.2727 N   0  0  0  0  0  0  0  0  0  0  0  0
  -22.9491    9.3259   30.1336 N   0  0  0  0  0  0  0  0  0  0  0  0
  -23.0568    8.7872   29.2538 H   0  0  0  0  0  0  0  0  0  0  0  0
  -23.2712   10.6253   30.2957 C   0  0  0  0  0  0  0  0  0  0  0  0
  -23.6744   11.2129   29.5133 H   0  0  0  0  0  0  0  0  0  0  0  0
  -23.1581   15.1458   32.6993 C   0  0  0  0  0  0  0  0  0  0  0  0
  -23.0267   14.5252   33.5464 H   0  0  0  0  0  0  0  0  0  0  0  0
  -22.8896   16.5111   32.7840 C   0  0  0  0  0  0  0  0  0  0  0  0
  -22.5571   16.9263   33.7016 H   0  0  0  0  0  0  0  0  0  0  0  0
  -23.0513   17.3406   31.6718 C   0  0  0  0  0  0  0  0  0  0  0  0
  -22.8436   18.3776   31.7486 H   0  0  0  0  0  0  0  0  0  0  0  0
  -23.4810   16.8007   30.4614 C   0  0  0  0  0  0  0  0  0  0  0  0
  -23.6015   17.4181   29.6079 H   0  0  0  0  0  0  0  0  0  0  0  0
  1  2  1  0
  2  3  1  0
  2 26  2  0
  3  4  1  0
  3 20  2  0
  4  5  1  0
  4  6  1  0
  6  7  1  0
  6  8  1  0
  6  9  1  0
  9 10  1  0
  9 18  2  0
 10 11  1  0
 10 15  2  0
 11 12  1  0
 11 13  1  0
 11 14  1  0
 15 16  1  0
 16 17  1  0
 16 18  1  0
 18 19  1  0
 20 21  1  0
 20 22  1  0
 22 23  1  0
 22 24  2  0
 24 25  1  0
 24 26  1  0
 26 27  1  0
M  END
$$$$
