F603_20
     RDKit          3D

 24 25  0  0  0  0  0  0  0  0999 V2000
  -23.7096   11.9564   28.2140 S   0  0  0  0  0  0  0  0  0  0  0  0
  -24.8041   11.9278   29.1640 O   0  0  0  0  0  0  0  0  0  0  0  0
  -23.2080   10.7279   27.6202 O   0  0  0  0  0  0  0  0  0  0  0  0
  -22.3238   12.8067   28.9518 C   0  0  0  0  0  0  0  0  0  0  0  0
  -22.6894   13.7533   29.3593 H   0  0  0  0  0  0  0  0  0  0  0  0
  -21.9394   12.1793   29.7606 H   0  0  0  0  0  0  0  0  0  0  0  0
  -21.2798   13.0564   27.9206 C   0  0  0  0  0  0  0  0  0  0  0  0
  -21.0891   12.2372   26.8411 N   0  0  0  0  0  0  0  0  0  0  0  0
  -21.5972   11.3649   26.6371 H   0  0  0  0  0  0  0  0  0  0  0  0
  -20.1042   12.7700   26.0768 C   0  0  0  0  0  0  0  0  0  0  0  0
  -19.7295   13.9210   26.7385 C   0  0  0  0  0  0  0  0  0  0  0  0
  -20.4818   14.0714   27.8843 N   0  0  0  0  0  0  0  0  0  0  0  0
  -18.7132   14.7180   26.1954 C   0  0  0  0  0  0  0  0  0  0  0  0
  -18.4193   15.6016   26.6986 H   0  0  0  0  0  0  0  0  0  0  0  0
  -18.1089   14.3291   25.0065 C   0  0  0  0  0  0  0  0  0  0  0  0
  -17.3387   14.9236   24.5873 H   0  0  0  0  0  0  0  0  0  0  0  0
  -18.5117   13.1447   24.3467 C   0  0  0  0  0  0  0  0  0  0  0  0
  -18.0374   12.8665   23.4393 H   0  0  0  0  0  0  0  0  0  0  0  0
  -19.5160   12.3501   24.8760 C   0  0  0  0  0  0  0  0  0  0  0  0
  -19.8268   11.4599   24.3929 H   0  0  0  0  0  0  0  0  0  0  0  0
  -24.1771   13.0417   26.8898 C   0  0  0  0  0  0  0  0  0  0  0  0
  -24.4609   14.0080   27.3103 H   0  0  0  0  0  0  0  0  0  0  0  0
  -25.0263   12.5964   26.3675 H   0  0  0  0  0  0  0  0  0  0  0  0
  -23.3326   13.1494   26.2057 H   0  0  0  0  0  0  0  0  0  0  0  0
  1  2  2  0
  1  3  2  0
  1  4  1  0
  1 21  1  0
  4  5  1  0
  4  6  1  0
  4  7  1  0
  7  8  1  0
  7 12  2  0
  8  9  1  0
  8 10  1  0
 10 11  1  0
 10 19  2  0
 11 12  1  0
 11 13  2  0
 13 14  1  0
 13 15  1  0
 15 16  1  0
 15 17  2  0
 17 18  1  0
 17 19  1  0
 19 20  1  0
 21 22  1  0
 21 23  1  0
 21 24  1  0
M  END
$$$$
