F126_43
     RDKit          3D

 23 23  0  0  0  0  0  0  0  0999 V2000
  -24.2702   17.4305   29.4478 Cl  0  0  0  0  0  0  0  0  0  0  0  0
  -24.1026   15.8459   30.1004 C   0  0  0  0  0  0  0  0  0  0  0  0
  -24.5000   14.6816   29.4237 C   0  0  0  0  0  0  0  0  0  0  0  0
  -25.1089   14.6340   28.0777 C   0  0  0  0  0  0  0  0  0  0  0  0
  -25.4673   15.5605   27.3661 O   0  0  0  0  0  0  0  0  0  0  0  0
  -25.3185   13.4151   27.5200 N   0  0  0  0  0  0  0  0  0  0  0  0
  -25.7473   13.3720   26.5876 H   0  0  0  0  0  0  0  0  0  0  0  0
  -25.0578   12.5665   28.0383 H   0  0  0  0  0  0  0  0  0  0  0  0
  -24.3171   13.4860   30.0386 N   0  0  0  0  0  0  0  0  0  0  0  0
  -23.7790   13.4214   31.2467 C   0  0  0  0  0  0  0  0  0  0  0  0
  -23.5981   12.0676   31.8853 C   0  0  0  0  0  0  0  0  0  0  0  0
  -24.5897   11.6209   32.0313 H   0  0  0  0  0  0  0  0  0  0  0  0
  -22.7962   11.1379   30.9763 C   0  0  0  0  0  0  0  0  0  0  0  0
  -21.7797   11.5124   30.8070 H   0  0  0  0  0  0  0  0  0  0  0  0
  -23.2783   11.0352   29.9973 H   0  0  0  0  0  0  0  0  0  0  0  0
  -22.7160   10.1390   31.4180 H   0  0  0  0  0  0  0  0  0  0  0  0
  -22.9390   12.1970   33.2585 C   0  0  0  0  0  0  0  0  0  0  0  0
  -21.9287   12.6150   33.1856 H   0  0  0  0  0  0  0  0  0  0  0  0
  -22.8624   11.2182   33.7447 H   0  0  0  0  0  0  0  0  0  0  0  0
  -23.5229   12.8528   33.9131 H   0  0  0  0  0  0  0  0  0  0  0  0
  -23.3945   14.5164   31.9091 N   0  0  0  0  0  0  0  0  0  0  0  0
  -23.5444   15.7102   31.3660 C   0  0  0  0  0  0  0  0  0  0  0  0
  -23.2327   16.5669   31.9088 H   0  0  0  0  0  0  0  0  0  0  0  0
  1  2  1  0
  2  3  1  0
  2 22  2  0
  3  4  1  0
  3  9  2  0
  4  5  2  0
  4  6  1  0
  6  7  1  0
  6  8  1  0
  9 10  1  0
 10 11  1  0
 10 21  2  0
 11 12  1  0
 11 13  1  0
 11 17  1  0
 13 14  1  0
 13 15  1  0
 13 16  1  0
 17 18  1  0
 17 19  1  0
 17 20  1  0
 21 22  1  0
 22 23  1  0
M  END
$$$$
